# CIF file generated by openbabel 2.4.90, see http://openbabel.sf.net
data_I
_chemical_name_common ''
_cell_length_a 14.056
_cell_length_b 17.915
_cell_length_c 17.917
_cell_angle_alpha 100.312
_cell_angle_beta 91.959
_cell_angle_gamma 91.889
_space_group_name_H-M_alt 'P 1'
_space_group_name_Hall 'P 1'
loop_
    _symmetry_equiv_pos_as_xyz
    x,y,z
loop_
    _atom_site_label
    _atom_site_type_symbol
    _atom_site_fract_x
    _atom_site_fract_y
    _atom_site_fract_z
    _atom_site_occupancy
    C0      C    0.10066   0.09029   0.91865   1.000
    C1      C    0.89933   0.08141   0.90968   1.000
    C2      C    0.41677   0.29387   0.45975   1.000
    C3      C    0.21326   0.28365   0.45036   1.000
    C4      C    0.58320   0.54029   0.70619   1.000
    C5      C    0.78672   0.54963   0.71670   1.000
    C6      C    0.84954   0.31929   0.88841   1.000
    C7      C    0.14831   0.33205   0.94923   1.000
    C8      C    0.24031   0.44633   0.96274   1.000
    C9      C    0.20590   0.50377   0.89569   1.000
    C10     C    0.17829   0.53148   0.99181   1.000
    C11     C    0.85648   0.45706   0.87979   1.000
    C12     C    0.85267   0.69317   0.88287   1.000
    C13     C    0.24272   0.75117   0.93296   1.000
    C14     C    0.18529   0.70103   0.99693   1.000
    C15     C    0.19220   0.65721   0.90146   1.000
    C16     C    0.14688   0.85907   0.92610   1.000
    C17     C    0.84460   0.83245   0.88340   1.000
    C18     C    0.25042   0.10977   0.80817   1.000
    C19     C    0.25841   0.06662   0.02724   1.000
    C20     C    0.43672   0.06074   0.03016   1.000
    C21     C    0.42849   0.11101   0.80302   1.000
    C22     C    0.15047   0.11150   0.68081   1.000
    C23     C    0.85169   0.05088   0.66776   1.000
    C24     C    0.75975   0.03740   0.55340   1.000
    C25     C    0.79415   0.10435   0.49594   1.000
    C26     C    0.82178   0.00000   0.46838   1.000
    C27     C    0.14358   0.12005   0.54304   1.000
    C28     C    0.14744   0.11722   0.30690   1.000
    C29     C    0.75746   0.06692   0.24863   1.000
    C30     C    0.81500   0.00298   0.29884   1.000
    C31     C    0.80795   0.09847   0.34260   1.000
    C32     C    0.85326   0.07377   0.14082   1.000
    C33     C    0.15548   0.11662   0.16770   1.000
    C34     C    0.74928   0.19178   0.88985   1.000
    C35     C    0.74183   0.97293   0.93368   1.000
    C36     C    0.56355   0.97000   0.93963   1.000
    C37     C    0.57121   0.19689   0.88866   1.000
    C38     C    0.46750   0.29207   0.22677   1.000
    C39     C    0.16351   0.26128   0.20271   1.000
    C40     C    0.17116   0.26017   0.06320   1.000
    C41     C    0.50455   0.34148   0.04474   1.000
    C42     C    0.56207   0.30843   0.12212   1.000
    C43     C    0.52132   0.24366   0.03916   1.000
    C44     C    0.53263   0.31488   0.87026   1.000
    C45     C    0.52731   0.39925   0.83173   1.000
    C46     C    0.46678   0.39059   0.91606   1.000
    C47     C    0.17878   0.24298   0.82446   1.000
    C48     C    0.17283   0.24804   0.68606   1.000
    C49     C    0.45334   0.35520   0.71010   1.000
    C50     C    0.47480   0.05802   0.46850   1.000
    C51     C    0.17272   0.03871   0.42114   1.000
    C52     C    0.17338   0.90153   0.42907   1.000
    C53     C    0.56329   0.95279   0.49122   1.000
    C54     C    0.49961   0.88302   0.53140   1.000
    C55     C    0.52084   0.86562   0.43382   1.000
    C56     C    0.17504   0.65717   0.41990   1.000
    C57     C    0.52613   0.70928   0.48505   1.000
    C58     C    0.46566   0.74866   0.56654   1.000
    C59     C    0.53093   0.66469   0.56610   1.000
    C60     C    0.45537   0.54409   0.52550   1.000
    C61     C    0.17243   0.51810   0.42287   1.000
    C62     C    0.55703   0.21689   0.35756   1.000
    C63     C    0.58349   0.37793   0.55518   1.000
    C64     C    0.76013   0.37764   0.55581   1.000
    C65     C    0.73395   0.21025   0.34890   1.000
    C66     C    0.88784   0.29273   0.57306   1.000
    C67     C    0.87727   0.28365   0.32999   1.000
    C68     C    0.05479   0.27834   0.33451   1.000
    C69     C    0.06546   0.28731   0.56687   1.000
    C70     C    0.53238   0.77333   0.70814   1.000
    C71     C    0.83637   0.79723   0.73904   1.000
    C72     C    0.82864   0.93675   0.74011   1.000
    C73     C    0.49525   0.95532   0.65855   1.000
    C74     C    0.43776   0.87801   0.69159   1.000
    C75     C    0.47844   0.96100   0.75635   1.000
    C76     C    0.46719   0.13018   0.68527   1.000
    C77     C    0.47239   0.16851   0.60079   1.000
    C78     C    0.53280   0.08409   0.60957   1.000
    C79     C    0.82123   0.17534   0.75683   1.000
    C80     C    0.82722   0.31377   0.75180   1.000
    C81     C    0.54652   0.29011   0.64479   1.000
    C82     C    0.52521   0.53154   0.94200   1.000
    C83     C    0.82731   0.57862   0.96160   1.000
    C84     C    0.82663   0.57077   0.09877   1.000
    C85     C    0.43672   0.50897   0.04723   1.000
    C86     C    0.50036   0.46877   0.11712   1.000
    C87     C    0.47917   0.56643   0.13437   1.000
    C88     C    0.82474   0.58050   0.34322   1.000
    C89     C    0.47372   0.51518   0.29077   1.000
    C90     C    0.53434   0.43371   0.25145   1.000
    C91     C    0.46912   0.43414   0.33537   1.000
    C92     C    0.54461   0.47470   0.45598   1.000
    C93     C    0.82736   0.57750   0.48220   1.000
    C94     C    0.44288   0.64252   0.78315   1.000
    C95     C    0.41655   0.44483   0.62220   1.000
    C96     C    0.23990   0.44417   0.62240   1.000
    C97     C    0.26597   0.65111   0.78978   1.000
    C98     C    0.11236   0.42690   0.70727   1.000
    C99     C    0.12248   0.67000   0.71650   1.000
    C100    C    0.94499   0.66545   0.72192   1.000
    C101    C    0.93476   0.43306   0.71282   1.000
    C102    C    0.99663   0.23397   0.92188   1.000
    C103    C    0.99871   0.31722   0.91946   1.000
    C104    C    0.91621   0.35265   0.90010   1.000
    C105    C    0.08467   0.36019   0.93451   1.000
    C106    C    0.09068   0.43727   0.93094   1.000
    C107    C    0.18389   0.48182   0.94636   1.000
    C108    C    0.91989   0.42925   0.89573   1.000
    C109    C    0.00643   0.47268   0.91174   1.000
    C110    C    0.00813   0.55124   0.90958   1.000
    C111    C    0.00739   0.61939   0.90922   1.000
    C112    C    0.00447   0.69801   0.90795   1.000
    C113    C    0.91660   0.73016   0.89380   1.000
    C114    C    0.08918   0.74497   0.92054   1.000
    C115    C    0.18250   0.71217   0.93840   1.000
    C116    C    0.08296   0.82189   0.91740   1.000
    C117    C    0.91229   0.80739   0.89339   1.000
    C118    C    0.99555   0.85404   0.90470   1.000
    C119    C    0.99144   0.93762   0.90444   1.000
    C120    C    0.29509   0.10000   0.85605   1.000
    C121    C    0.29955   0.07451   0.97859   1.000
    C122    C    0.39827   0.07149   0.97958   1.000
    C123    C    0.39375   0.10012   0.85364   1.000
    C124    C    0.44739   0.08497   0.91617   1.000
    C125    C    0.00334   0.07819   0.76600   1.000
    C126    C    0.00128   0.08058   0.68275   1.000
    C127    C    0.08380   0.09985   0.64740   1.000
    C128    C    0.91534   0.06556   0.63969   1.000
    C129    C    0.90938   0.06909   0.56260   1.000
    C130    C    0.81617   0.05369   0.51797   1.000
    C131    C    0.08016   0.10417   0.57078   1.000
    C132    C    0.99363   0.08822   0.52728   1.000
    C133    C    0.99196   0.09038   0.44873   1.000
    C134    C    0.99276   0.09077   0.38059   1.000
    C135    C    0.99568   0.09204   0.30199   1.000
    C136    C    0.08352   0.10621   0.26992   1.000
    C137    C    0.91098   0.07940   0.25497   1.000
    C138    C    0.81769   0.06151   0.28769   1.000
    C139    C    0.91718   0.08242   0.17805   1.000
    C140    C    0.08780   0.10663   0.19269   1.000
    C141    C    0.00455   0.09525   0.14597   1.000
    C142    C    0.00862   0.09551   0.06240   1.000
    C143    C    0.70474   0.14395   0.89979   1.000
    C144    C    0.70059   0.02154   0.92565   1.000
    C145    C    0.60188   0.02055   0.92871   1.000
    C146    C    0.60607   0.14634   0.89970   1.000
    C147    C    0.55260   0.08388   0.91505   1.000
    C148    C    0.31145   0.27890   0.30684   1.000
    C149    C    0.31528   0.27714   0.22304   1.000
    C150    C    0.40323   0.28547   0.19006   1.000
    C151    C    0.23150   0.26826   0.17700   1.000
    C152    C    0.23562   0.26831   0.09976   1.000
    C153    C    0.40972   0.28680   0.11287   1.000
    C154    C    0.50441   0.29580   0.07830   1.000
    C155    C    0.32402   0.27892   0.06710   1.000
    C156    C    0.32595   0.28327   0.98919   1.000
    C157    C    0.32421   0.28932   0.92231   1.000
    C158    C    0.32051   0.29520   0.84466   1.000
    C159    C    0.39874   0.32847   0.81247   1.000
    C160    C    0.48572   0.36039   0.85999   1.000
    C161    C    0.23859   0.26749   0.79869   1.000
    C162    C    0.23528   0.27033   0.72172   1.000
    C163    C    0.39354   0.32985   0.73493   1.000
    C164    C    0.31385   0.29999   0.68875   1.000
    C165    C    0.31382   0.29822   0.60486   1.000
    C166    C    0.32312   0.14071   0.44493   1.000
    C167    C    0.32398   0.05708   0.44529   1.000
    C168    C    0.40925   0.02280   0.46015   1.000
    C169    C    0.23894   0.01260   0.43333   1.000
    C170    C    0.23943   0.93611   0.43777   1.000
    C171    C    0.41179   0.94610   0.46528   1.000
    C172    C    0.50381   0.91048   0.48141   1.000
    C173    C    0.32477   0.90180   0.45453   1.000
    C174    C    0.32272   0.82403   0.46053   1.000
    C175    C    0.31943   0.75680   0.46559   1.000
    C176    C    0.31742   0.67870   0.47030   1.000
    C177    C    0.23620   0.63172   0.44304   1.000
    C178    C    0.39745   0.64660   0.50150   1.000
    C179    C    0.48464   0.69463   0.53183   1.000
    C180    C    0.39411   0.56877   0.50182   1.000
    C181    C    0.23459   0.55445   0.44448   1.000
    C182    C    0.31464   0.52194   0.47266   1.000
    C183    C    0.31641   0.43791   0.46975   1.000
    C184    C    0.60536   0.25132   0.39992   1.000
    C185    C    0.61948   0.34079   0.51103   1.000
    C186    C    0.71835   0.34010   0.51118   1.000
    C187    C    0.70357   0.24835   0.39550   1.000
    C188    C    0.76243   0.29275   0.45270   1.000
    C189    C    0.86731   0.28939   0.45171   1.000
    C190    C    0.92191   0.29077   0.51904   1.000
    C191    C    0.91573   0.28435   0.38395   1.000
    C192    C    0.01444   0.28186   0.38578   1.000
    C193    C    0.02029   0.28736   0.51625   1.000
    C194    C    0.68849   0.69317   0.72129   1.000
    C195    C    0.68460   0.77698   0.72310   1.000
    C196    C    0.59663   0.81001   0.71476   1.000
    C197    C    0.76836   0.82295   0.73203   1.000
    C198    C    0.76420   0.90023   0.73195   1.000
    C199    C    0.59010   0.88720   0.71330   1.000
    C200    C    0.49539   0.92177   0.70426   1.000
    C201    C    0.67578   0.93293   0.72126   1.000
    C202    C    0.67385   0.01084   0.71679   1.000
    C203    C    0.67565   0.07770   0.71064   1.000
    C204    C    0.67938   0.15534   0.70470   1.000
    C205    C    0.60110   0.18765   0.67150   1.000
    C206    C    0.51400   0.14024   0.63968   1.000
    C207    C    0.76139   0.20120   0.73236   1.000
    C208    C    0.76473   0.27818   0.72953   1.000
    C209    C    0.60635   0.26519   0.67010   1.000
    C210    C    0.68613   0.31126   0.69992   1.000
    C211    C    0.68617   0.39518   0.70183   1.000
    C212    C    0.67688   0.55501   0.85950   1.000
    C213    C    0.67604   0.55460   0.94311   1.000
    C214    C    0.59077   0.53983   0.97734   1.000
    C215    C    0.76109   0.56650   0.98766   1.000
    C216    C    0.76059   0.56212   0.06414   1.000
    C217    C    0.58822   0.53478   0.05403   1.000
    C218    C    0.49619   0.51877   0.08958   1.000
    C219    C    0.67524   0.54549   0.09839   1.000
    C220    C    0.67727   0.53960   0.17618   1.000
    C221    C    0.68050   0.53463   0.24343   1.000
    C222    C    0.68247   0.53000   0.32154   1.000
    C223    C    0.76363   0.55731   0.36860   1.000
    C224    C    0.60248   0.49874   0.35355   1.000
    C225    C    0.51533   0.46842   0.30545   1.000
    C226    C    0.60581   0.49846   0.43137   1.000
    C227    C    0.76524   0.55587   0.44586   1.000
    C228    C    0.68524   0.52763   0.47827   1.000
    C229    C    0.68347   0.53040   0.56220   1.000
    C230    C    0.39458   0.60014   0.74873   1.000
    C231    C    0.38054   0.48900   0.65930   1.000
    C232    C    0.28166   0.48883   0.65999   1.000
    C233    C    0.29637   0.60448   0.75169   1.000
    C234    C    0.23754   0.54730   0.70731   1.000
    C235    C    0.13267   0.54827   0.71069   1.000
    C236    C    0.07819   0.48092   0.70929   1.000
    C237    C    0.08413   0.61603   0.71579   1.000
    C238    C    0.98543   0.61418   0.71835   1.000
    C239    C    0.97981   0.48369   0.71278   1.000
    C240    C    0.24846   0.08797   0.91760   1.000
    C241    C    0.75152   0.08247   0.91199   1.000
    C242    C    0.56361   0.29664   0.45693   1.000
    C243    C    0.06629   0.28339   0.45083   1.000
    C244    C    0.43637   0.54312   0.70343   1.000
    C245    C    0.93370   0.54912   0.71682   1.000
    C246    C    0.07043   0.97426   0.90299   1.000
    C247    C    0.90911   0.96577   0.90613   1.000
    C248    C    0.91651   0.19747   0.90930   1.000
    C249    C    0.07599   0.20535   0.93523   1.000
    C250    C    0.92959   0.09700   0.02573   1.000
    C251    C    0.09093   0.09381   0.03429   1.000
    C252    C    0.08347   0.09072   0.80256   1.000
    C253    C    0.92399   0.06490   0.79457   1.000
    C254    C    0.39106   0.28456   0.34422   1.000
    C255    C    0.22944   0.27519   0.33458   1.000
    C256    C    0.39491   0.30341   0.57582   1.000
    C257    C    0.23332   0.29163   0.56872   1.000
    C258    C    0.40329   0.17722   0.45062   1.000
    C259    C    0.24164   0.16946   0.44040   1.000
    C260    C    0.39826   0.40963   0.47454   1.000
    C261    C    0.23688   0.40054   0.46256   1.000
    C262    C    0.60891   0.65580   0.71558   1.000
    C263    C    0.77053   0.66539   0.72498   1.000
    C264    C    0.60506   0.42428   0.69660   1.000
    C265    C    0.76665   0.43129   0.70862   1.000
    C266    C    0.59673   0.54936   0.82293   1.000
    C267    C    0.75837   0.55958   0.83080   1.000
    C268    C    0.60161   0.52558   0.59045   1.000
    C269    C    0.76299   0.53746   0.59971   1.000
    O270    O    0.96911   0.09626   0.04407   1.000
    O271    O    0.91446   0.08921   0.96770   1.000
    O272    O    0.27898   0.07056   0.00291   1.000
    O273    O    0.41750   0.06611   0.00487   1.000
    O274    O    0.04977   0.09466   0.04834   1.000
    O275    O    0.09579   0.09205   0.97647   1.000
    O276    O    0.51287   0.26973   0.05873   1.000
    O277    O    0.50448   0.31864   0.06152   1.000
    O278    O    0.46646   0.51387   0.06841   1.000
    O279    O    0.54221   0.52677   0.07180   1.000
    O280    O    0.63173   0.54013   0.07621   1.000
    O281    O    0.58950   0.53731   0.01568   1.000
    O282    O    0.00658   0.09538   0.10418   1.000
    O283    O    0.20339   0.26424   0.08148   1.000
    O284    O    0.71792   0.55381   0.08127   1.000
    O285    O    0.79361   0.56645   0.08145   1.000
    O286    O    0.76084   0.56431   0.02590   1.000
    O287    O    0.27982   0.27361   0.08343   1.000
    O288    O    0.36687   0.28286   0.08998   1.000
    O289    O    0.32499   0.28110   0.02814   1.000
    O290    O    0.45706   0.29130   0.09559   1.000
    O291    O    0.53324   0.30212   0.10021   1.000
    O292    O    0.49828   0.49377   0.10335   1.000
    O293    O    0.48768   0.54260   0.11197   1.000
    O294    O    0.67625   0.54254   0.13728   1.000
    O295    O    0.23356   0.26828   0.13838   1.000
    O296    O    0.40647   0.28613   0.15146   1.000
    O297    O    0.88522   0.07810   0.15944   1.000
    O298    O    0.96086   0.08884   0.16201   1.000
    O299    O    0.04617   0.10094   0.16933   1.000
    O300    O    0.12164   0.11163   0.18019   1.000
    O301    O    0.67888   0.53711   0.20981   1.000
    O302    O    0.19750   0.26477   0.18985   1.000
    O303    O    0.27339   0.27270   0.20002   1.000
    O304    O    0.91408   0.08091   0.21651   1.000
    O305    O    0.35925   0.28131   0.20655   1.000
    O306    O    0.43536   0.28877   0.20841   1.000
    O307    O    0.08566   0.10642   0.23130   1.000
    O308    O    0.31337   0.27802   0.26494   1.000
    O309    O    0.68149   0.53232   0.28248   1.000
    O310    O    0.78758   0.06421   0.26816   1.000
    O311    O    0.52483   0.45107   0.27845   1.000
    O312    O    0.86434   0.07045   0.27133   1.000
    O313    O    0.95333   0.08572   0.27848   1.000
    O314    O    0.03960   0.09912   0.28595   1.000
    O315    O    0.11548   0.11171   0.28841   1.000
    O316    O    0.81635   0.03225   0.29326   1.000
    O317    O    0.81282   0.07999   0.31515   1.000
    O318    O    0.49453   0.49180   0.29811   1.000
    O319    O    0.99422   0.09140   0.34129   1.000
    O320    O    0.49222   0.45128   0.32041   1.000
    O321    O    0.55890   0.48358   0.32950   1.000
    O322    O    0.27045   0.27704   0.32071   1.000
    O323    O    0.35126   0.28173   0.32553   1.000
    O324    O    0.64248   0.51437   0.33754   1.000
    O325    O    0.72305   0.54366   0.34507   1.000
    O326    O    0.89650   0.28400   0.35697   1.000
    O327    O    0.03461   0.28010   0.36014   1.000
    O328    O    0.22135   0.27942   0.39247   1.000
    O329    O    0.79419   0.56890   0.35591   1.000
    O330    O    0.40392   0.28922   0.40198   1.000
    O331    O    0.71876   0.22930   0.37220   1.000
    O332    O    0.60415   0.49860   0.39246   1.000
    O333    O    0.58120   0.23411   0.37874   1.000
    O334    O    0.76443   0.55659   0.40723   1.000
    O335    O    0.99236   0.09058   0.41466   1.000
    O336    O    0.96508   0.28311   0.38486   1.000
    O337    O    0.89152   0.28687   0.41783   1.000
    O338    O    0.04036   0.28263   0.41831   1.000
    O339    O    0.65446   0.24984   0.39771   1.000
    O340    O    0.73300   0.27055   0.42410   1.000
    O341    O    0.58448   0.27398   0.42843   1.000
    O342    O    0.20562   0.64444   0.43147   1.000
    O343    O    0.20583   0.02565   0.42723   1.000
    O344    O    0.20351   0.53628   0.43367   1.000
    O345    O    0.20640   0.91882   0.43342   1.000
    O346    O    0.57521   0.48658   0.44367   1.000
    O347    O    0.64553   0.51304   0.45482   1.000
    O348    O    0.23918   0.97435   0.43555   1.000
    O349    O    0.28146   0.03484   0.43931   1.000
    O350    O    0.51232   0.88805   0.45761   1.000
    O351    O    0.28210   0.91895   0.44615   1.000
    O352    O    0.28238   0.15508   0.44266   1.000
    O353    O    0.22745   0.22655   0.44538   1.000
    O354    O    0.23540   0.59309   0.44376   1.000
    O355    O    0.27681   0.65521   0.45667   1.000
    O356    O    0.27462   0.53820   0.45857   1.000
    O357    O    0.32355   0.09890   0.44511   1.000
    O358    O    0.36320   0.15896   0.44777   1.000
    O359    O    0.36661   0.03994   0.45272   1.000
    O360    O    0.72524   0.54175   0.46206   1.000
    O361    O    0.79630   0.56669   0.46403   1.000
    O362    O    0.99279   0.08930   0.48801   1.000
    O363    O    0.13978   0.28352   0.45059   1.000
    O364    O    0.22507   0.34209   0.45646   1.000
    O365    O    0.22329   0.28764   0.50954   1.000
    O366    O    0.41003   0.23555   0.45519   1.000
    O367    O    0.04329   0.28538   0.48354   1.000
    O368    O    0.81487   0.29107   0.45220   1.000
    O369    O    0.89461   0.29008   0.48537   1.000
    O370    O    0.74039   0.31642   0.48194   1.000
    O371    O    0.32374   0.86292   0.45753   1.000
    O372    O    0.36828   0.92395   0.45990   1.000
    O373    O    0.49019   0.29526   0.45834   1.000
    O374    O    0.59154   0.31872   0.48398   1.000
    O375    O    0.40751   0.35175   0.46714   1.000
    O376    O    0.40584   0.29864   0.51778   1.000
    O377    O    0.41052   0.98445   0.46272   1.000
    O378    O    0.44203   0.04041   0.46432   1.000
    O379    O    0.32107   0.79041   0.46306   1.000
    O380    O    0.27665   0.41922   0.46615   1.000
    O381    O    0.45780   0.92829   0.47335   1.000
    O382    O    0.31843   0.71775   0.46794   1.000
    O383    O    0.81897   0.02685   0.49318   1.000
    O384    O    0.31553   0.47993   0.47120   1.000
    O385    O    0.35733   0.42377   0.47215   1.000
    O386    O    0.35744   0.66265   0.48590   1.000
    O387    O    0.35438   0.54536   0.48724   1.000
    O388    O    0.68436   0.52901   0.52023   1.000
    O389    O    0.53355   0.93164   0.48631   1.000
    O390    O    0.50171   0.89675   0.50640   1.000
    O391    O    0.50538   0.70196   0.50844   1.000
    O392    O    0.80516   0.07902   0.50695   1.000
    O393    O    0.39578   0.60768   0.50166   1.000
    O394    O    0.44104   0.67062   0.51666   1.000
    O395    O    0.42474   0.55643   0.51366   1.000
    O396    O    0.66892   0.34045   0.51111   1.000
    O397    O    0.60148   0.35936   0.53310   1.000
    O398    O    0.73924   0.35887   0.53349   1.000
    O399    O    0.97110   0.28907   0.51764   1.000
    O400    O    0.04287   0.28734   0.54156   1.000
    O401    O    0.78796   0.04555   0.53569   1.000
    O402    O    0.86277   0.06139   0.54029   1.000
    O403    O    0.90487   0.29175   0.54605   1.000
    O404    O    0.95150   0.07865   0.54494   1.000
    O405    O    0.03689   0.09620   0.54903   1.000
    O406    O    0.50779   0.67966   0.54897   1.000
    O407    O    0.47515   0.72165   0.54919   1.000
    O408    O    0.11187   0.11211   0.55691   1.000
    O409    O    0.64254   0.52799   0.57632   1.000
    O410    O    0.72323   0.53393   0.58095   1.000
    O411    O    0.91236   0.06732   0.60114   1.000
    O412    O    0.27357   0.29492   0.58679   1.000
    O413    O    0.08198   0.10201   0.60909   1.000
    O414    O    0.35436   0.30081   0.59034   1.000
    O415    O    0.59241   0.53293   0.64832   1.000
    O416    O    0.77486   0.54355   0.65820   1.000
    O417    O    0.49319   0.15438   0.62023   1.000
    O418    O    0.31383   0.29910   0.64680   1.000
    O419    O    0.52340   0.11217   0.62462   1.000
    O420    O    0.39854   0.46691   0.64075   1.000
    O421    O    0.26078   0.46650   0.64119   1.000
    O422    O    0.55755   0.16395   0.65559   1.000
    O423    O    0.49059   0.13521   0.66248   1.000
    O424    O    0.88352   0.05822   0.65373   1.000
    O425    O    0.95831   0.07307   0.66122   1.000
    O426    O    0.57643   0.27765   0.65744   1.000
    O427    O    0.11714   0.10568   0.66410   1.000
    O428    O    0.04254   0.09022   0.66507   1.000
    O429    O    0.49532   0.93855   0.68140   1.000
    O430    O    0.33110   0.48891   0.65965   1.000
    O431    O    0.40845   0.51606   0.68136   1.000
    O432    O    0.25960   0.51807   0.68365   1.000
    O433    O    0.60373   0.22642   0.67080   1.000
    O434    O    0.64624   0.28822   0.68501   1.000
    O435    O    0.64024   0.17149   0.68810   1.000
    O436    O    0.00231   0.07939   0.72437   1.000
    O437    O    0.20406   0.25918   0.70389   1.000
    O438    O    0.27456   0.28516   0.70524   1.000
    O439    O    0.35370   0.31492   0.71184   1.000
    O440    O    0.46658   0.89989   0.69793   1.000
    O441    O    0.64561   0.40973   0.69921   1.000
    O442    O    0.59413   0.48228   0.70139   1.000
    O443    O    0.68615   0.35322   0.70087   1.000
    O444    O    0.72543   0.29472   0.71472   1.000
    O445    O    0.72641   0.41323   0.70522   1.000
    O446    O    0.50979   0.54171   0.70481   1.000
    O447    O    0.41548   0.57163   0.72608   1.000
    O448    O    0.54275   0.90449   0.70878   1.000
    O449    O    0.48692   0.94138   0.73030   1.000
    O450    O    0.67751   0.11652   0.70767   1.000
    O451    O    0.72038   0.17827   0.71853   1.000
    O452    O    0.59606   0.59805   0.71088   1.000
    O453    O    0.58997   0.54483   0.76456   1.000
    O454    O    0.09527   0.45391   0.70828   1.000
    O455    O    0.18510   0.54779   0.70900   1.000
    O456    O    0.26696   0.57589   0.72950   1.000
    O457    O    0.56451   0.79167   0.71145   1.000
    O458    O    0.77669   0.49046   0.71266   1.000
    O459    O    0.10543   0.51460   0.70999   1.000
    O460    O    0.02900   0.48231   0.71103   1.000
    O461    O    0.42344   0.34252   0.72251   1.000
    O462    O    0.67475   0.04427   0.71371   1.000
    O463    O    0.10840   0.58215   0.71324   1.000
    O464    O    0.95729   0.45838   0.71280   1.000
    O465    O    0.95676   0.51641   0.71480   1.000
    O466    O    0.59337   0.84861   0.71403   1.000
    O467    O    0.63294   0.91006   0.71728   1.000
    O468    O    0.64062   0.79350   0.71893   1.000
    O469    O    0.64870   0.67449   0.71843   1.000
    O470    O    0.10330   0.64302   0.71614   1.000
    O471    O    0.03478   0.61511   0.71707   1.000
    O472    O    0.86021   0.54937   0.71676   1.000
    O473    O    0.77863   0.60751   0.72084   1.000
    O474    O    0.77255   0.55460   0.77375   1.000
    O475    O    0.67481   0.97188   0.71903   1.000
    O476    O    0.95957   0.58165   0.71759   1.000
    O477    O    0.96521   0.63982   0.72013   1.000
    O478    O    0.71999   0.91658   0.72661   1.000
    O479    O    0.68655   0.73508   0.72219   1.000
    O480    O    0.72951   0.67928   0.72313   1.000
    O481    O    0.23693   0.26891   0.76021   1.000
    O482    O    0.72648   0.79996   0.72756   1.000
    O483    O    0.76306   0.23969   0.73094   1.000
    O484    O    0.79598   0.29597   0.74067   1.000
    O485    O    0.76628   0.86159   0.73199   1.000
    O486    O    0.79642   0.91849   0.73603   1.000
    O487    O    0.80237   0.81009   0.73553   1.000
    O488    O    0.79131   0.18827   0.74460   1.000
    O489    O    0.39614   0.32916   0.77370   1.000
    O490    O    0.34548   0.60231   0.75021   1.000
    O491    O    0.41873   0.62133   0.76594   1.000
    O492    O    0.28117   0.62779   0.77073   1.000
    O493    O    0.96367   0.07155   0.78029   1.000
    O494    O    0.04341   0.08445   0.78428   1.000
    O495    O    0.91166   0.07315   0.85213   1.000
    O496    O    0.20868   0.25523   0.81158   1.000
    O497    O    0.27955   0.28135   0.82168   1.000
    O498    O    0.09207   0.09050   0.86060   1.000
    O499    O    0.41112   0.10556   0.82833   1.000
    O500    O    0.27275   0.10488   0.83211   1.000
    O501    O    0.35962   0.31183   0.82856   1.000
    O502    O    0.44223   0.34443   0.83623   1.000
    O503    O    0.63681   0.55219   0.84121   1.000
    O504    O    0.71762   0.55729   0.84515   1.000
    O505    O    0.50652   0.37982   0.84586   1.000
    O506    O    0.32236   0.29226   0.88348   1.000
    O507    O    0.34442   0.10006   0.85484   1.000
    O508    O    0.42057   0.09254   0.88490   1.000
    O509    O    0.27178   0.09398   0.88682   1.000
    O510    O    0.67646   0.55481   0.90130   1.000
    O511    O    0.50917   0.33764   0.86513   1.000
    O512    O    0.47625   0.37549   0.88802   1.000
    O513    O    0.88819   0.44316   0.88776   1.000
    O514    O    0.88463   0.71166   0.88834   1.000
    O515    O    0.87845   0.81992   0.88839   1.000
    O516    O    0.88287   0.33597   0.89426   1.000
    O517    O    0.58864   0.17161   0.89418   1.000
    O518    O    0.72701   0.16786   0.89482   1.000
    O519    O    0.91445   0.76877   0.89359   1.000
    O520    O    0.95392   0.83071   0.89904   1.000
    O521    O    0.96054   0.71408   0.90087   1.000
    O522    O    0.19490   0.49280   0.92103   1.000
    O523    O    0.91805   0.39095   0.89791   1.000
    O524    O    0.96316   0.45097   0.90374   1.000
    O525    O    0.65541   0.14514   0.89974   1.000
    O526    O    0.57934   0.11511   0.90737   1.000
    O527    O    0.72813   0.11321   0.90589   1.000
    O528    O    0.95746   0.33493   0.90978   1.000
    O529    O    0.18735   0.68469   0.91993   1.000
    O530    O    0.03094   0.95594   0.90372   1.000
    O531    O    0.08555   0.03228   0.91082   1.000
    O532    O    0.99350   0.89583   0.90457   1.000
    O533    O    0.95027   0.95169   0.90529   1.000
    O534    O    0.03926   0.83797   0.91105   1.000
    O535    O    0.90422   0.02359   0.90790   1.000
    O536    O    0.00593   0.65870   0.90858   1.000
    O537    O    0.04683   0.72149   0.91425   1.000
    O538    O    0.00776   0.58532   0.90940   1.000
    O539    O    0.90792   0.13944   0.90949   1.000
    O540    O    0.95657   0.21572   0.91559   1.000
    O541    O    0.00728   0.51196   0.91066   1.000
    O542    O    0.82543   0.08194   0.91084   1.000
    O543    O    0.04855   0.45498   0.92134   1.000
    O544    O    0.72606   0.05200   0.91882   1.000
    O545    O    0.49999   0.08442   0.91561   1.000
    O546    O    0.57724   0.05221   0.92188   1.000
    O547    O    0.42283   0.07823   0.94787   1.000
    O548    O    0.08607   0.78343   0.91897   1.000
    O549    O    0.11492   0.84048   0.92175   1.000
    O550    O    0.17456   0.08913   0.91812   1.000
    O551    O    0.27401   0.08124   0.94809   1.000
    O552    O    0.08833   0.14782   0.92694   1.000
    O553    O    0.99767   0.27560   0.92067   1.000
    O554    O    0.04169   0.33871   0.92699   1.000
    O555    O    0.13584   0.72857   0.92947   1.000
    O556    O    0.03631   0.21966   0.92855   1.000
    O557    O    0.32508   0.28630   0.95575   1.000
    O558    O    0.65123   0.02105   0.92718   1.000
    O559    O    0.72121   0.99724   0.92966   1.000
    O560    O    0.58271   0.99527   0.93417   1.000
    O561    O    0.08767   0.39873   0.93272   1.000
    O562    O    0.13728   0.45955   0.93865   1.000
    O563    O    0.21261   0.73167   0.93568   1.000
    O564    O    0.11649   0.34612   0.94187   1.000
    O565    O    0.18390   0.70660   0.96766   1.000
    O566    O    0.55799   0.53569   0.95967   1.000
    O567    O    0.63341   0.54722   0.96022   1.000
    O568    O    0.71857   0.56055   0.96539   1.000
    O569    O    0.21210   0.46408   0.95455   1.000
    O570    O    0.18109   0.50665   0.96908   1.000
    O571    O    0.79420   0.57256   0.97463   1.000
    O572    O    0.34891   0.07300   0.97908   1.000
    O573    O    1.00000   0.08585   0.91417   1.000
    O574    O    0.31502   0.28876   0.45505   1.000
    O575    O    0.68496   0.54496   0.71144   1.000
loop_
    _geom_bond_atom_site_label_1
    _geom_bond_atom_site_label_2
    _geom_bond_distance
    _geom_bond_site_symmetry_2
    _ccdc_geom_bond_type
    C250   O270      0.63731      .   S
    C142   O270      0.63731  1_455   S
    C250   O271      1.03755  1_554   S
    C1     O271      1.03755      .   S
    C19    O272      0.54484      .   S
    C121   O272      0.54484  1_556   S
    C20    O273      0.54459      .   S
    C122   O273      0.54459  1_556   S
    C251   O274      0.63828      .   S
    C142   O274      0.63828      .   S
    C251   O275      1.03547  1_554   S
    C0     O275      1.03547      .   S
    C43    O276      0.55053      .   S
    C154   O276      0.55053      .   S
    C41    O277      0.54940      .   S
    C154   O277      0.54940      .   S
    C85    O278      0.54880      .   S
    C218   O278      0.54880      .   S
    C217   O279      0.75139      .   S
    C218   O279      0.75139      .   S
    C217   O280      0.71209      .   S
    C219   O280      0.71209      .   S
    C217   O281      0.69737      .   S
    C214   O281      0.69737  1_556   S
    C142   O282      0.75061      .   S
    C141   O282      0.75061      .   S
    C40    O283      0.54491      .   S
    C152   O283      0.54491      .   S
    C216   O284      0.70652      .   S
    C219   O284      0.70652      .   S
    C216   O285      0.54486      .   S
    C84    O285      0.54486      .   S
    C216   O286      0.69335      .   S
    C215   O286      0.69335  1_556   S
    C155   O287      0.70650      .   S
    C152   O287      0.70650      .   S
    C155   O288      0.71117      .   S
    C153   O288      0.71117      .   S
    C155   O289      0.70654      .   S
    C156   O289      0.70654  1_556   S
    C154   O290      0.75155      .   S
    C153   O290      0.75155      .   S
    C154   O291      0.54889      .   S
    C42    O291      0.54889      .   S
    C218   O292      0.54972      .   S
    C86    O292      0.54972      .   S
    C218   O293      0.55039      .   S
    C87    O293      0.55039      .   S
    C219   O294      0.70794      .   S
    C220   O294      0.70794      .   S
    C152   O295      0.69363      .   S
    C151   O295      0.69363      .   S
    C153   O296      0.69676      .   S
    C150   O296      0.69676      .   S
    C32    O297      0.54522      .   S
    C139   O297      0.54522      .   S
    C141   O298      0.70146  1_455   S
    C139   O298      0.70146      .   S
    C141   O299      0.70143      .   S
    C140   O299      0.70143      .   S
    C33    O300      0.54402      .   S
    C140   O300      0.54402      .   S
    C220   O301      0.61169      .   S
    C221   O301      0.61169      .   S
    C151   O302      0.54408      .   S
    C39    O302      0.54408      .   S
    C151   O303      0.70123      .   S
    C149   O303      0.70123      .   S
    C139   O304      0.69724      .   S
    C137   O304      0.69724      .   S
    C150   O305      0.70157      .   S
    C149   O305      0.70157      .   S
    C150   O306      0.54479      .   S
    C38    O306      0.54479      .   S
    C140   O307      0.69423      .   S
    C136   O307      0.69423      .   S
    C149   O308      0.74950      .   S
    C148   O308      0.74950      .   S
    C221   O309      0.70805      .   S
    C222   O309      0.70805      .   S
    C29    O310      0.54893      .   S
    C138   O310      0.54893      .   S
    C90    O311      0.54942      .   S
    C225   O311      0.54942      .   S
    C137   O312      0.75129      .   S
    C138   O312      0.75129      .   S
    C137   O313      0.71131      .   S
    C135   O313      0.71131      .   S
    C136   O314      0.70690      .   S
    C135   O314      0.70690  1_655   S
    C136   O315      0.54453      .   S
    C28    O315      0.54453      .   S
    C138   O316      0.55079      .   S
    C30    O316      0.55079      .   S
    C138   O317      0.54933      .   S
    C31    O317      0.54933      .   S
    C89    O318      0.55082      .   S
    C225   O318      0.55082      .   S
    C135   O319      0.70725      .   S
    C134   O319      0.70725      .   S
    C225   O320      0.54817      .   S
    C91    O320      0.54817      .   S
    C225   O321      0.75080      .   S
    C224   O321      0.75080      .   S
    C148   O322      0.63759      .   S
    C255   O322      0.63759      .   S
    C148   O323      0.63796      .   S
    C254   O323      0.63796      .   S
    C222   O324      0.71137      .   S
    C224   O324      0.71137      .   S
    C222   O325      0.70735      .   S
    C223   O325      0.70735      .   S
    C67    O326      0.54466      .   S
    C191   O326      0.54466      .   S
    C68    O327      0.54471      .   S
    C192   O327      0.54471      .   S
    C255   O328      1.03681      .   S
    C3     O328      1.03681      .   S
    C88    O329      0.54499      .   S
    C223   O329      0.54499      .   S
    C254   O330      1.03251      .   S
    C2     O330      1.03251      .   S
    C65    O331      0.54428      .   S
    C187   O331      0.54428      .   S
    C224   O332      0.69721      .   S
    C226   O332      0.69721      .   S
    C62    O333      0.54486      .   S
    C184   O333      0.54486      .   S
    C223   O334      0.69428      .   S
    C227   O334      0.69428      .   S
    C134   O335      0.61128      .   S
    C133   O335      0.61128      .   S
    C191   O336      0.69454      .   S
    C192   O336      0.69454  1_455   S
    C191   O337      0.70116      .   S
    C189   O337      0.70116      .   S
    C192   O338      0.67444      .   S
    C243   O338      0.67444      .   S
    C187   O339      0.69377      .   S
    C184   O339      0.69377      .   S
    C187   O340      0.70257      .   S
    C188   O340      0.70257      .   S
    C184   O341      0.67500      .   S
    C242   O341      0.67500      .   S
    C56    O342      0.54496      .   S
    C177   O342      0.54496      .   S
    C51    O343      0.54411      .   S
    C169   O343      0.54411      .   S
    C61    O344      0.54465      .   S
    C181   O344      0.54465      .   S
    C52    O345      0.54484      .   S
    C170   O345      0.54484      .   S
    C226   O346      0.54421      .   S
    C92    O346      0.54421      .   S
    C226   O347      0.70103      .   S
    C228   O347      0.70103      .   S
    C169   O348      0.69351  1_545   S
    C170   O348      0.69351      .   S
    C169   O349      0.70150      .   S
    C167   O349      0.70150      .   S
    C55    O350      0.55035      .   S
    C172   O350      0.55035      .   S
    C170   O351      0.70653      .   S
    C173   O351      0.70653      .   S
    C259   O352      0.63858      .   S
    C166   O352      0.63858      .   S
    C259   O353      1.03727      .   S
    C3     O353      1.03727      .   S
    C177   O354      0.69429      .   S
    C181   O354      0.69429      .   S
    C177   O355      0.70736      .   S
    C176   O355      0.70736      .   S
    C181   O356      0.70174      .   S
    C182   O356      0.70174      .   S
    C166   O357      0.74984      .   S
    C167   O357      0.74984      .   S
    C166   O358      0.63789      .   S
    C258   O358      0.63789      .   S
    C167   O359      0.70177      .   S
    C168   O359      0.70177      .   S
    C227   O360      0.70176      .   S
    C228   O360      0.70176      .   S
    C227   O361      0.54432      .   S
    C93    O361      0.54432      .   S
    C133   O362      0.70713      .   S
    C132   O362      0.70713      .   S
    C3     O363      1.03302      .   S
    C243   O363      1.03302      .   S
    C3     O364      1.04031      .   S
    C261   O364      1.04031      .   S
    C3     O365      1.05416      .   S
    C257   O365      1.05416      .   S
    C258   O366      1.03440      .   S
    C2     O366      1.03440      .   S
    C243   O367      0.67491      .   S
    C193   O367      0.67491      .   S
    C189   O368      0.73897      .   S
    C188   O368      0.73897      .   S
    C189   O369      0.70173      .   S
    C190   O369      0.70173      .   S
    C188   O370      0.70038      .   S
    C186   O370      0.70038      .   S
    C173   O371      0.70799      .   S
    C174   O371      0.70799      .   S
    C173   O372      0.71210      .   S
    C171   O372      0.71210      .   S
    C242   O373      1.03270      .   S
    C2     O373      1.03270      .   S
    C242   O374      0.67350      .   S
    C185   O374      0.67350      .   S
    C2     O375      1.03460      .   S
    C260   O375      1.03460      .   S
    C2     O376      1.04503      .   S
    C256   O376      1.04503      .   S
    C168   O377      0.69749  1_545   S
    C171   O377      0.69749      .   S
    C168   O378      0.54496      .   S
    C50    O378      0.54496      .   S
    C174   O379      0.61168      .   S
    C175   O379      0.61168      .   S
    C261   O380      0.63725      .   S
    C183   O380      0.63725      .   S
    C171   O381      0.75140      .   S
    C172   O381      0.75140      .   S
    C175   O382      0.70807      .   S
    C176   O382      0.70807      .   S
    C26    O383      0.59681      .   S
    C130   O383      0.59681      .   S
    C183   O384      0.74907      .   S
    C182   O384      0.74907      .   S
    C183   O385      0.63929      .   S
    C260   O385      0.63929      .   S
    C176   O386      0.71122      .   S
    C178   O386      0.71122      .   S
    C182   O387      0.70104      .   S
    C180   O387      0.70104      .   S
    C228   O388      0.74839      .   S
    C229   O388      0.74839      .   S
    C172   O389      0.54884      .   S
    C53    O389      0.54884      .   S
    C172   O390      0.54939      .   S
    C54    O390      0.54939      .   S
    C57    O391      0.55083      .   S
    C179   O391      0.55083      .   S
    C25    O392      0.55079      .   S
    C130   O392      0.55079      .   S
    C178   O393      0.69732      .   S
    C180   O393      0.69732      .   S
    C178   O394      0.75085      .   S
    C179   O394      0.75085      .   S
    C180   O395      0.54405      .   S
    C60    O395      0.54405      .   S
    C185   O396      0.69511      .   S
    C186   O396      0.69511      .   S
    C185   O397      0.54436      .   S
    C63    O397      0.54436      .   S
    C186   O398      0.54451      .   S
    C64    O398      0.54451      .   S
    C193   O399      0.69419  1_455   S
    C190   O399      0.69419      .   S
    C193   O400      0.54464      .   S
    C69    O400      0.54464      .   S
    C130   O401      0.54833      .   S
    C24    O401      0.54833      .   S
    C130   O402      0.75123      .   S
    C129   O402      0.75123      .   S
    C190   O403      0.54500      .   S
    C66    O403      0.54500      .   S
    C132   O404      0.71109      .   S
    C129   O404      0.71109      .   S
    C132   O405      0.70727  1_655   S
    C131   O405      0.70727      .   S
    C179   O406      0.54815      .   S
    C59    O406      0.54815      .   S
    C179   O407      0.54943      .   S
    C58    O407      0.54943      .   S
    C27    O408      0.54467      .   S
    C131   O408      0.54467      .   S
    C229   O409      0.63965      .   S
    C268   O409      0.63965      .   S
    C229   O410      0.63753      .   S
    C269   O410      0.63753      .   S
    C129   O411      0.69687      .   S
    C128   O411      0.69687      .   S
    C257   O412      0.63781      .   S
    C165   O412      0.63781      .   S
    C131   O413      0.69404      .   S
    C127   O413      0.69404      .   S
    C256   O414      0.63828      .   S
    C165   O414      0.63828      .   S
    C268   O415      1.03467      .   S
    C4     O415      1.03467      .   S
    C269   O416      1.04119      .   S
    C5     O416      1.04119      .   S
    C77    O417      0.54818      .   S
    C206   O417      0.54818      .   S
    C165   O418      0.74883      .   S
    C164   O418      0.74883      .   S
    C78    O419      0.54906      .   S
    C206   O419      0.54906      .   S
    C95    O420      0.54435      .   S
    C231   O420      0.54435      .   S
    C96    O421      0.54481      .   S
    C232   O421      0.54481      .   S
    C206   O422      0.75092      .   S
    C205   O422      0.75092      .   S
    C206   O423      0.55100      .   S
    C76    O423      0.55100      .   S
    C128   O424      0.54432      .   S
    C23    O424      0.54432      .   S
    C128   O425      0.70132      .   S
    C126   O425      0.70132  1_455   S
    C81    O426      0.54392      .   S
    C209   O426      0.54392      .   S
    C127   O427      0.54409      .   S
    C22    O427      0.54409      .   S
    C127   O428      0.70137      .   S
    C126   O428      0.70137      .   S
    C73    O429      0.54960      .   S
    C200   O429      0.54960      .   S
    C231   O430      0.69510      .   S
    C232   O430      0.69510      .   S
    C231   O431      0.67349      .   S
    C244   O431      0.67349      .   S
    C232   O432      0.70032      .   S
    C234   O432      0.70032      .   S
    C209   O433      0.69671      .   S
    C205   O433      0.69671      .   S
    C209   O434      0.70079      .   S
    C210   O434      0.70079      .   S
    C205   O435      0.71061      .   S
    C204   O435      0.71061      .   S
    C126   O436      0.74959      .   S
    C125   O436      0.74959      .   S
    C48    O437      0.54436      .   S
    C162   O437      0.54436      .   S
    C164   O438      0.70164      .   S
    C162   O438      0.70164      .   S
    C164   O439      0.70077      .   S
    C163   O439      0.70077      .   S
    C74    O440      0.54868      .   S
    C200   O440      0.54868      .   S
    C264   O441      0.63829      .   S
    C211   O441      0.63829      .   S
    C264   O442      1.04418      .   S
    C4     O442      1.04418      .   S
    C210   O443      0.74880      .   S
    C211   O443      0.74880      .   S
    C210   O444      0.70161      .   S
    C208   O444      0.70161      .   S
    C211   O445      0.63783      .   S
    C265   O445      0.63783      .   S
    C244   O446      1.03266      .   S
    C4     O446      1.03266      .   S
    C244   O447      0.67499      .   S
    C230   O447      0.67499      .   S
    C200   O448      0.75128      .   S
    C199   O448      0.75128      .   S
    C200   O449      0.55067      .   S
    C75    O449      0.55067      .   S
    C204   O450      0.70664      .   S
    C203   O450      0.70664      .   S
    C204   O451      0.70745      .   S
    C207   O451      0.70745      .   S
    C4     O452      1.03239      .   S
    C262   O452      1.03239      .   S
    C4     O453      1.03520      .   S
    C266   O453      1.03520      .   S
    C98    O454      0.54496      .   S
    C236   O454      0.54496      .   S
    C234   O455      0.73897      .   S
    C235   O455      0.73897      .   S
    C234   O456      0.70231      .   S
    C233   O456      0.70231      .   S
    C70    O457      0.54481      .   S
    C196   O457      0.54481      .   S
    C265   O458      1.05393      .   S
    C5     O458      1.05393      .   S
    C236   O459      0.70177      .   S
    C235   O459      0.70177      .   S
    C236   O460      0.69419      .   S
    C239   O460      0.69419  1_655   S
    C49    O461      0.54392      .   S
    C163   O461      0.54392      .   S
    C203   O462      0.61090      .   S
    C202   O462      0.61090      .   S
    C235   O463      0.70116      .   S
    C237   O463      0.70116      .   S
    C239   O464      0.54460      .   S
    C101   O464      0.54460      .   S
    C239   O465      0.67495      .   S
    C245   O465      0.67495      .   S
    C199   O466      0.69689      .   S
    C196   O466      0.69689      .   S
    C199   O467      0.71113      .   S
    C201   O467      0.71113      .   S
    C196   O468      0.70154      .   S
    C195   O468      0.70154      .   S
    C262   O469      0.63797      .   S
    C194   O469      0.63797      .   S
    C237   O470      0.54463      .   S
    C99    O470      0.54463      .   S
    C237   O471      0.69453      .   S
    C238   O471      0.69453  1_655   S
    C5     O472      1.03306      .   S
    C245   O472      1.03306      .   S
    C5     O473      1.03657      .   S
    C263   O473      1.03657      .   S
    C5     O474      1.03681      .   S
    C267   O474      1.03681      .   S
    C202   O475      0.70677  1_545   S
    C201   O475      0.70677      .   S
    C245   O476      0.67445      .   S
    C238   O476      0.67445      .   S
    C238   O477      0.54466      .   S
    C100   O477      0.54466      .   S
    C201   O478      0.70647      .   S
    C198   O478      0.70647      .   S
    C194   O479      0.74947      .   S
    C195   O479      0.74947      .   S
    C194   O480      0.63761      .   S
    C263   O480      0.63761      .   S
    C162   O481      0.69416      .   S
    C161   O481      0.69416      .   S
    C195   O482      0.70104      .   S
    C197   O482      0.70104      .   S
    C208   O483      0.69419      .   S
    C207   O483      0.69419      .   S
    C208   O484      0.54436      .   S
    C80    O484      0.54436      .   S
    C198   O485      0.69394      .   S
    C197   O485      0.69394      .   S
    C198   O486      0.54489      .   S
    C72    O486      0.54489      .   S
    C197   O487      0.54391      .   S
    C71    O487      0.54391      .   S
    C207   O488      0.54484      .   S
    C79    O488      0.54484      .   S
    C163   O489      0.69669      .   S
    C159   O489      0.69669      .   S
    C230   O490      0.69372      .   S
    C233   O490      0.69372      .   S
    C230   O491      0.54485      .   S
    C94    O491      0.54485      .   S
    C233   O492      0.54440      .   S
    C97    O492      0.54440      .   S
    C125   O493      0.63796  1_455   S
    C253   O493      0.63796      .   S
    C125   O494      0.63801      .   S
    C252   O494      0.63801      .   S
    C253   O495      1.03664      .   S
    C1     O495      1.03664      .   S
    C161   O496      0.54486      .   S
    C47    O496      0.54486      .   S
    C161   O497      0.70745      .   S
    C158   O497      0.70745      .   S
    C252   O498      1.04358      .   S
    C0     O498      1.04358      .   S
    C21    O499      0.54461      .   S
    C123   O499      0.54461      .   S
    C18    O500      0.54429      .   S
    C120   O500      0.54429      .   S
    C159   O501      0.71063      .   S
    C158   O501      0.71063      .   S
    C159   O502      0.75091      .   S
    C160   O502      0.75091      .   S
    C266   O503      0.63781      .   S
    C212   O503      0.63781      .   S
    C267   O504      0.63876      .   S
    C212   O504      0.63876      .   S
    C45    O505      0.54823      .   S
    C160   O505      0.54823      .   S
    C158   O506      0.70663      .   S
    C157   O506      0.70663      .   S
    C123   O507      0.69444      .   S
    C120   O507      0.69444      .   S
    C123   O508      0.70032      .   S
    C124   O508      0.70032      .   S
    C120   O509      0.67403      .   S
    C240   O509      0.67403      .   S
    C212   O510      0.74990      .   S
    C213   O510      0.74990      .   S
    C160   O511      0.55096      .   S
    C44    O511      0.55096      .   S
    C160   O512      0.54909      .   S
    C46    O512      0.54909      .   S
    C11    O513      0.54469      .   S
    C108   O513      0.54469      .   S
    C12    O514      0.54484      .   S
    C113   O514      0.54484      .   S
    C17    O515      0.54412      .   S
    C117   O515      0.54412      .   S
    C6     O516      0.54410      .   S
    C104   O516      0.54410      .   S
    C37    O517      0.54458      .   S
    C146   O517      0.54458      .   S
    C34    O518      0.54425      .   S
    C143   O518      0.54425      .   S
    C117   O519      0.69412      .   S
    C113   O519      0.69412      .   S
    C117   O520      0.70142      .   S
    C118   O520      0.70142      .   S
    C113   O521      0.70699      .   S
    C112   O521      0.70699  1_455   S
    C9     O522      0.55078      .   S
    C107   O522      0.55078      .   S
    C108   O523      0.69398      .   S
    C104   O523      0.69398      .   S
    C108   O524      0.70727      .   S
    C109   O524      0.70727  1_455   S
    C146   O525      0.69445      .   S
    C143   O525      0.69445      .   S
    C146   O526      0.70029      .   S
    C147   O526      0.70029      .   S
    C143   O527      0.67407      .   S
    C241   O527      0.67407      .   S
    C104   O528      0.70136      .   S
    C103   O528      0.70136      .   S
    C15    O529      0.54951      .   S
    C115   O529      0.54951      .   S
    C246   O530      0.63730      .   S
    C119   O530      0.63730  1_655   S
    C246   O531      1.03741  1_565   S
    C0     O531      1.03741      .   S
    C119   O532      0.75059      .   S
    C118   O532      0.75059      .   S
    C119   O533      0.63829      .   S
    C247   O533      0.63829      .   S
    C118   O534      0.70127  1_655   S
    C116   O534      0.70127      .   S
    C247   O535      1.03523  1_565   S
    C1     O535      1.03523      .   S
    C112   O536      0.70729      .   S
    C111   O536      0.70729      .   S
    C112   O537      0.71134      .   S
    C114   O537      0.71134      .   S
    C111   O538      0.61122      .   S
    C110   O538      0.61122      .   S
    C248   O539      1.04326      .   S
    C1     O539      1.04326      .   S
    C248   O540      0.63800      .   S
    C102   O540      0.63800      .   S
    C110   O541      0.70718      .   S
    C109   O541      0.70718      .   S
    C1     O542      1.04003      .   S
    C241   O542      1.04003      .   S
    C109   O543      0.71111      .   S
    C106   O543      0.71111      .   S
    C241   O544      0.67448      .   S
    C144   O544      0.67448      .   S
    C147   O545      0.74020      .   S
    C124   O545      0.74020      .   S
    C147   O546      0.70117      .   S
    C145   O546      0.70117      .   S
    C124   O547      0.70117      .   S
    C122   O547      0.70117      .   S
    C116   O548      0.69741      .   S
    C114   O548      0.69741      .   S
    C116   O549      0.54519      .   S
    C16    O549      0.54519      .   S
    C240   O550      1.03998      .   S
    C0     O550      1.03998      .   S
    C240   O551      0.67452      .   S
    C121   O551      0.67452      .   S
    C0     O552      1.03589      .   S
    C249   O552      1.03589      .   S
    C103   O553      0.74958      .   S
    C102   O553      0.74958      .   S
    C103   O554      0.70132  1_655   S
    C105   O554      0.70132      .   S
    C114   O555      0.75128      .   S
    C115   O555      0.75128      .   S
    C102   O556      0.63794  1_655   S
    C249   O556      0.63794      .   S
    C157   O557      0.61091      .   S
    C156   O557      0.61091      .   S
    C144   O558      0.69505      .   S
    C145   O558      0.69505      .   S
    C144   O559      0.54490  1_545   S
    C35    O559      0.54490      .   S
    C145   O560      0.54477  1_545   S
    C36    O560      0.54477      .   S
    C106   O561      0.69685      .   S
    C105   O561      0.69685      .   S
    C106   O562      0.75126      .   S
    C107   O562      0.75126      .   S
    C13    O563      0.54891      .   S
    C115   O563      0.54891      .   S
    C105   O564      0.54431      .   S
    C7     O564      0.54431      .   S
    C115   O565      0.55083      .   S
    C14    O565      0.55083      .   S
    C82    O566      0.54537      .   S
    C214   O566      0.54537      .   S
    C213   O567      0.70180      .   S
    C214   O567      0.70180      .   S
    C213   O568      0.70154      .   S
    C215   O568      0.70154      .   S
    C107   O569      0.54850      .   S
    C8     O569      0.54850      .   S
    C107   O570      0.55004      .   S
    C10    O570      0.55004      .   S
    C83    O571      0.54413      .   S
    C215   O571      0.54413      .   S
    C121   O572      0.69506      .   S
    C122   O572      0.69506      .   S
    C0     O573      1.41329  1_455   S
    C1     O573      1.41329      .   S
    C2     O574      1.42879      .   S
    C3     O574      1.42879      .   S
    C4     O575      1.42891      .   S
    C5     O575      1.42891      .   S
