# CIF file generated by openbabel 2.4.90, see http://openbabel.sf.net
data_I
_chemical_name_common ''
_cell_length_a 14.056
_cell_length_b 17.915
_cell_length_c 17.917
_cell_angle_alpha 100.312
_cell_angle_beta 91.959
_cell_angle_gamma 91.889
_space_group_name_H-M_alt 'P 1'
_space_group_name_Hall 'P 1'
loop_
    _symmetry_equiv_pos_as_xyz
    x,y,z
loop_
    _atom_site_label
    _atom_site_type_symbol
    _atom_site_fract_x
    _atom_site_fract_y
    _atom_site_fract_z
    _atom_site_occupancy
    Zr0     Zr   0.10066   0.09029   0.91865   1.000
    Zr1     Zr   0.89933   0.08141   0.90968   1.000
    Zr2     Zr   0.41677   0.29387   0.45975   1.000
    Zr3     Zr   0.21326   0.28365   0.45036   1.000
    Zr4     Zr   0.58320   0.54029   0.70619   1.000
    Zr5     Zr   0.78672   0.54963   0.71670   1.000
    Zr6     Zr   0.99663   0.23397   0.92188   1.000
    Zr7     Zr   0.99144   0.93762   0.90444   1.000
    Zr8     Zr   0.00334   0.07819   0.76600   1.000
    Zr9     Zr   0.00862   0.09551   0.06240   1.000
    Zr10    Zr   0.31145   0.27890   0.30684   1.000
    Zr11    Zr   0.31382   0.29822   0.60486   1.000
    Zr12    Zr   0.32312   0.14071   0.44493   1.000
    Zr13    Zr   0.31641   0.43791   0.46975   1.000
    Zr14    Zr   0.68849   0.69317   0.72129   1.000
    Zr15    Zr   0.68617   0.39518   0.70183   1.000
    Zr16    Zr   0.67688   0.55501   0.85950   1.000
    Zr17    Zr   0.68347   0.53040   0.56220   1.000
    Zr18    Zr   0.07043   0.97426   0.90299   1.000
    Zr19    Zr   0.90911   0.96577   0.90613   1.000
    Zr20    Zr   0.91651   0.19747   0.90930   1.000
    Zr21    Zr   0.07599   0.20535   0.93523   1.000
    Zr22    Zr   0.92959   0.09700   0.02573   1.000
    Zr23    Zr   0.09093   0.09381   0.03429   1.000
    Zr24    Zr   0.08347   0.09072   0.80256   1.000
    Zr25    Zr   0.92399   0.06490   0.79457   1.000
    Zr26    Zr   0.39106   0.28456   0.34422   1.000
    Zr27    Zr   0.22944   0.27519   0.33458   1.000
    Zr28    Zr   0.39491   0.30341   0.57582   1.000
    Zr29    Zr   0.23332   0.29163   0.56872   1.000
    Zr30    Zr   0.40329   0.17722   0.45062   1.000
    Zr31    Zr   0.24164   0.16946   0.44040   1.000
    Zr32    Zr   0.39826   0.40963   0.47454   1.000
    Zr33    Zr   0.23688   0.40054   0.46256   1.000
    Zr34    Zr   0.60891   0.65580   0.71558   1.000
    Zr35    Zr   0.77053   0.66539   0.72498   1.000
    Zr36    Zr   0.60506   0.42428   0.69660   1.000
    Zr37    Zr   0.76665   0.43129   0.70862   1.000
    Zr38    Zr   0.59673   0.54936   0.82293   1.000
    Zr39    Zr   0.75837   0.55958   0.83080   1.000
    Zr40    Zr   0.60161   0.52558   0.59045   1.000
    Zr41    Zr   0.76299   0.53746   0.59971   1.000
    O42     O    0.96911   0.09626   0.04407   1.000
    O43     O    0.91446   0.08921   0.96770   1.000
    O44     O    0.04977   0.09466   0.04834   1.000
    O45     O    0.09579   0.09205   0.97647   1.000
    O46     O    0.27045   0.27704   0.32071   1.000
    O47     O    0.35126   0.28173   0.32553   1.000
    O48     O    0.22135   0.27942   0.39247   1.000
    O49     O    0.40392   0.28922   0.40198   1.000
    O50     O    0.28238   0.15508   0.44266   1.000
    O51     O    0.22745   0.22655   0.44538   1.000
    O52     O    0.36320   0.15896   0.44777   1.000
    O53     O    0.22507   0.34209   0.45646   1.000
    O54     O    0.22329   0.28764   0.50954   1.000
    O55     O    0.41003   0.23555   0.45519   1.000
    O56     O    0.40751   0.35175   0.46714   1.000
    O57     O    0.40584   0.29864   0.51778   1.000
    O58     O    0.27665   0.41922   0.46615   1.000
    O59     O    0.35733   0.42377   0.47215   1.000
    O60     O    0.64254   0.52799   0.57632   1.000
    O61     O    0.72323   0.53393   0.58095   1.000
    O62     O    0.27357   0.29492   0.58679   1.000
    O63     O    0.35436   0.30081   0.59034   1.000
    O64     O    0.59241   0.53293   0.64832   1.000
    O65     O    0.77486   0.54355   0.65820   1.000
    O66     O    0.64561   0.40973   0.69921   1.000
    O67     O    0.59413   0.48228   0.70139   1.000
    O68     O    0.72641   0.41323   0.70522   1.000
    O69     O    0.59606   0.59805   0.71088   1.000
    O70     O    0.58997   0.54483   0.76456   1.000
    O71     O    0.77669   0.49046   0.71266   1.000
    O72     O    0.64870   0.67449   0.71843   1.000
    O73     O    0.77863   0.60751   0.72084   1.000
    O74     O    0.77255   0.55460   0.77375   1.000
    O75     O    0.72951   0.67928   0.72313   1.000
    O76     O    0.96367   0.07155   0.78029   1.000
    O77     O    0.04341   0.08445   0.78428   1.000
    O78     O    0.91166   0.07315   0.85213   1.000
    O79     O    0.09207   0.09050   0.86060   1.000
    O80     O    0.63681   0.55219   0.84121   1.000
    O81     O    0.71762   0.55729   0.84515   1.000
    O82     O    0.03094   0.95594   0.90372   1.000
    O83     O    0.08555   0.03228   0.91082   1.000
    O84     O    0.95027   0.95169   0.90529   1.000
    O85     O    0.90422   0.02359   0.90790   1.000
    O86     O    0.90792   0.13944   0.90949   1.000
    O87     O    0.95657   0.21572   0.91559   1.000
    O88     O    0.08833   0.14782   0.92694   1.000
    O89     O    0.03631   0.21966   0.92855   1.000
    O90     O    1.00000   0.08585   0.91417   1.000
    O91     O    0.31502   0.28876   0.45505   1.000
    O92     O    0.68496   0.54496   0.71144   1.000
    N93     N    0.04796   0.58837   0.91876   1.000
    O94     O    0.02281   0.43198   0.91971   1.000
    O95     O    0.02073   0.74210   0.91166   1.000
    N96     N    0.63621   0.04083   0.70210   1.000
    O97     O    0.66138   0.88795   0.71215   1.000
    O98     O    0.66118   0.19703   0.70149   1.000
    N99     N    0.36364   0.29797   0.95922   1.000
    O100    O    0.33874   0.29853   0.80301   1.000
    O101    O    0.33850   0.28799   0.11208   1.000
    N102    N    0.18504   0.54716   0.70951   1.000
    O103    O    0.02263   0.54827   0.71314   1.000
    O104    O    0.34742   0.54443   0.70716   1.000
    N105    N    0.63555   0.52763   0.20709   1.000
    O106    O    0.65995   0.52832   0.36366   1.000
    O107    O    0.65601   0.54122   0.05420   1.000
    N108    N    0.81494   0.29059   0.45283   1.000
    O109    O    0.97736   0.28706   0.45171   1.000
    O110    O    0.65256   0.29293   0.45559   1.000
    N111    N    0.95214   0.08093   0.41157   1.000
    O112    O    0.97723   0.08016   0.56797   1.000
    O113    O    0.97936   0.08815   0.25788   1.000
    N114    N    0.49999   0.08487   0.91515   1.000
    O115    O    0.66271   0.08341   0.91299   1.000
    O116    O    0.33728   0.08700   0.91664   1.000
    N117    N    0.36441   0.79308   0.47252   1.000
    O118    O    0.34398   0.94599   0.45882   1.000
    O119    O    0.33997   0.63650   0.47186   1.000
loop_
    _geom_bond_atom_site_label_1
    _geom_bond_atom_site_label_2
    _geom_bond_distance
    _geom_bond_site_symmetry_2
    _ccdc_geom_bond_type
    Zr22   O42       0.63731      .   S
    Zr9    O42       0.63731  1_455   S
    Zr22   O43       1.03755  1_554   S
    Zr1    O43       1.03755      .   S
    Zr23   O44       0.63828      .   S
    Zr9    O44       0.63828      .   S
    Zr23   O45       1.03547  1_554   S
    Zr0    O45       1.03547      .   S
    Zr10   O46       0.63759      .   S
    Zr27   O46       0.63759      .   S
    Zr10   O47       0.63796      .   S
    Zr26   O47       0.63796      .   S
    Zr27   O48       1.03681      .   S
    Zr3    O48       1.03681      .   S
    Zr26   O49       1.03251      .   S
    Zr2    O49       1.03251      .   S
    Zr31   O50       0.63858      .   S
    Zr12   O50       0.63858      .   S
    Zr31   O51       1.03727      .   S
    Zr3    O51       1.03727      .   S
    Zr12   O52       0.63789      .   S
    Zr30   O52       0.63789      .   S
    Zr3    O53       1.04031      .   S
    Zr33   O53       1.04031      .   S
    Zr3    O54       1.05416      .   S
    Zr29   O54       1.05416      .   S
    Zr30   O55       1.03440      .   S
    Zr2    O55       1.03440      .   S
    Zr2    O56       1.03460      .   S
    Zr32   O56       1.03460      .   S
    Zr2    O57       1.04503      .   S
    Zr28   O57       1.04503      .   S
    Zr33   O58       0.63725      .   S
    Zr13   O58       0.63725      .   S
    Zr13   O59       0.63929      .   S
    Zr32   O59       0.63929      .   S
    Zr17   O60       0.63965      .   S
    Zr40   O60       0.63965      .   S
    Zr17   O61       0.63753      .   S
    Zr41   O61       0.63753      .   S
    Zr29   O62       0.63781      .   S
    Zr11   O62       0.63781      .   S
    Zr28   O63       0.63828      .   S
    Zr11   O63       0.63828      .   S
    Zr40   O64       1.03467      .   S
    Zr4    O64       1.03467      .   S
    Zr41   O65       1.04119      .   S
    Zr5    O65       1.04119      .   S
    Zr36   O66       0.63829      .   S
    Zr15   O66       0.63829      .   S
    Zr36   O67       1.04418      .   S
    Zr4    O67       1.04418      .   S
    Zr15   O68       0.63783      .   S
    Zr37   O68       0.63783      .   S
    Zr4    O69       1.03239      .   S
    Zr34   O69       1.03239      .   S
    Zr4    O70       1.03520      .   S
    Zr38   O70       1.03520      .   S
    Zr37   O71       1.05393      .   S
    Zr5    O71       1.05393      .   S
    Zr34   O72       0.63797      .   S
    Zr14   O72       0.63797      .   S
    Zr5    O73       1.03657      .   S
    Zr35   O73       1.03657      .   S
    Zr5    O74       1.03681      .   S
    Zr39   O74       1.03681      .   S
    Zr14   O75       0.63761      .   S
    Zr35   O75       0.63761      .   S
    Zr8    O76       0.63796  1_455   S
    Zr25   O76       0.63796      .   S
    Zr8    O77       0.63801      .   S
    Zr24   O77       0.63801      .   S
    Zr25   O78       1.03664      .   S
    Zr1    O78       1.03664      .   S
    Zr24   O79       1.04358      .   S
    Zr0    O79       1.04358      .   S
    Zr38   O80       0.63781      .   S
    Zr16   O80       0.63781      .   S
    Zr39   O81       0.63876      .   S
    Zr16   O81       0.63876      .   S
    Zr18   O82       0.63730      .   S
    Zr7    O82       0.63730  1_655   S
    Zr18   O83       1.03741  1_565   S
    Zr0    O83       1.03741      .   S
    Zr7    O84       0.63829      .   S
    Zr19   O84       0.63829      .   S
    Zr19   O85       1.03523  1_565   S
    Zr1    O85       1.03523      .   S
    Zr20   O86       1.04326      .   S
    Zr1    O86       1.04326      .   S
    Zr20   O87       0.63800      .   S
    Zr6    O87       0.63800      .   S
    Zr0    O88       1.03589      .   S
    Zr21   O88       1.03589      .   S
    Zr6    O89       0.63794  1_655   S
    Zr21   O89       0.63794      .   S
    Zr0    O90       1.41329  1_455   S
    Zr1    O90       1.41329      .   S
    Zr2    O91       1.42879      .   S
    Zr3    O91       1.42879      .   S
    Zr4    O92       1.42891      .   S
    Zr5    O92       1.42891      .   S
    N93    O94       2.81549      .   S
    Zr6    O94       3.56164  1_655   S
    N93    O95       2.81761      .   S
    Zr7    O95       3.56496  1_655   S
    N96    O97       2.80977  1_545   S
    Zr14   O97       3.55493      .   S
    N96    O98       2.81065      .   S
    Zr15   O98       3.55456      .   S
    N99    O100      2.81057      .   S
    Zr11   O100      3.55458      .   S
    N99    O101      2.80978  1_556   S
    Zr10   O101      3.55499      .   S
    N102   O103      2.28671      .   S
    Zr5    O103      3.31947  1_655   S
    N102   O104      2.28610      .   S
    Zr4    O104      3.31810      .   S
    N105   O106      2.81229      .   S
    Zr17   O106      3.55465      .   S
    N105   O107      2.81678      .   S
    Zr16   O107      3.56230  1_556   S
    N108   O109      2.28662      .   S
    Zr3    O109      3.31934  1_455   S
    N108   O110      2.28614      .   S
    Zr2    O110      3.31819      .   S
    N111   O112      2.81495      .   S
    Zr8    O112      3.56110  1_455   S
    N111   O113      2.81822      .   S
    Zr9    O113      3.56556  1_455   S
    N114   O115      2.28976      .   S
    Zr1    O115      3.32978      .   S
    N114   O116      2.28967      .   S
    Zr0    O116      3.32964      .   S
    N117   O118      2.81683      .   S
    Zr12   O118      3.56225  1_545   S
    N117   O119      2.81266      .   S
    Zr13   O119      3.55566      .   S
