# CIF file generated by openbabel 2.4.90, see http://openbabel.sf.net
data_I
_chemical_name_common ''
_cell_length_a 22.522
_cell_length_b 16.308
_cell_length_c 14.511
_cell_angle_alpha 89.989
_cell_angle_beta 95.208
_cell_angle_gamma 89.979
_space_group_name_H-M_alt 'P 1'
_space_group_name_Hall 'P 1'
loop_
    _symmetry_equiv_pos_as_xyz
    x,y,z
loop_
    _atom_site_label
    _atom_site_type_symbol
    _atom_site_fract_x
    _atom_site_fract_y
    _atom_site_fract_z
    _atom_site_occupancy
    H0      H    0.11723   0.60274   0.26406   1.000
    H1      H    0.61722   0.60270   0.26405   1.000
    H2      H    0.22598   0.81211   0.29173   1.000
    H3      H    0.72596   0.81207   0.29178   1.000
    H4      H    0.21377   0.84058   0.46630   1.000
    H5      H    0.71374   0.84049   0.46638   1.000
    H6      H    0.18014   0.76179   0.52752   1.000
    H7      H    0.68007   0.76170   0.52756   1.000
    H8      H    0.08068   0.84467   0.33508   1.000
    H9      H    0.58065   0.84462   0.33511   1.000
    H10     H    0.99924   0.93973   0.35135   1.000
    H11     H    0.49922   0.93972   0.35136   1.000
    H12     H    0.06427   0.98000   0.63737   1.000
    H13     H    0.56425   0.97999   0.63730   1.000
    H14     H    0.14515   0.88449   0.62024   1.000
    H15     H    0.64512   0.88443   0.62027   1.000
    H16     H    0.41248   0.41962   0.51001   1.000
    H17     H    0.91249   0.41959   0.51001   1.000
    H18     H    0.35577   0.39683   0.36200   1.000
    H19     H    0.85578   0.39681   0.36200   1.000
    H20     H    0.98818   0.52728   0.22300   1.000
    H21     H    0.48819   0.52725   0.22000   1.000
    H22     H    0.04488   0.55275   0.37150   1.000
    H23     H    0.54489   0.55272   0.37153   1.000
    H24     H    0.40724   0.43805   0.13330   1.000
    H25     H    0.90723   0.43806   0.13330   1.000
    H26     H    0.34700   0.40183   0.19297   1.000
    H27     H    0.84699   0.40184   0.19297   1.000
    H28     H    0.25229   0.49207   0.15073   1.000
    H29     H    0.75228   0.49208   0.15074   1.000
    H30     H    0.33973   0.71735   0.12374   1.000
    H31     H    0.83972   0.71736   0.12376   1.000
    H32     H    0.15942   0.91377   0.98296   1.000
    H33     H    0.65941   0.91379   0.98303   1.000
    H34     H    0.13251   0.10265   0.73581   1.000
    H35     H    0.63252   0.10266   0.73580   1.000
    H36     H    0.02395   0.31233   0.70825   1.000
    H37     H    0.52395   0.31232   0.70824   1.000
    H38     H    0.03617   0.34083   0.53363   1.000
    H39     H    0.53619   0.34085   0.53365   1.000
    H40     H    0.06979   0.26200   0.47244   1.000
    H41     H    0.56980   0.26202   0.47245   1.000
    H42     H    0.16937   0.34452   0.66478   1.000
    H43     H    0.66933   0.34464   0.66484   1.000
    H44     H    0.25083   0.43949   0.64850   1.000
    H45     H    0.75078   0.43961   0.64858   1.000
    H46     H    0.18558   0.48030   0.36264   1.000
    H47     H    0.68568   0.48017   0.36260   1.000
    H48     H    0.10470   0.38487   0.37977   1.000
    H49     H    0.60479   0.38476   0.37970   1.000
    H50     H    0.33754   0.91967   0.48992   1.000
    H51     H    0.83759   0.91964   0.49000   1.000
    H52     H    0.39424   0.89686   0.63796   1.000
    H53     H    0.89429   0.89684   0.63807   1.000
    H54     H    0.26170   0.02723   0.77686   1.000
    H55     H    0.76170   0.02708   0.77699   1.000
    H56     H    0.20503   0.05273   0.62832   1.000
    H57     H    0.70501   0.05255   0.62840   1.000
    H58     H    0.34270   0.93812   0.86660   1.000
    H59     H    0.84274   0.93805   0.86673   1.000
    H60     H    0.40296   0.90180   0.80703   1.000
    H61     H    0.90300   0.90175   0.80715   1.000
    H62     H    0.49765   0.99193   0.84954   1.000
    H63     H    0.99768   0.99192   0.84961   1.000
    H64     H    0.41020   0.21736   0.87585   1.000
    H65     H    0.91019   0.21732   0.87590   1.000
    H66     H    0.09056   0.41370   0.01731   1.000
    H67     H    0.59056   0.41370   0.01729   1.000
    H68     H    0.38276   0.39732   0.73589   1.000
    H69     H    0.88274   0.39728   0.73588   1.000
    H70     H    0.27402   0.18795   0.70814   1.000
    H71     H    0.77399   0.18791   0.70820   1.000
    H72     H    0.28624   0.15953   0.53354   1.000
    H73     H    0.78621   0.15944   0.53362   1.000
    H74     H    0.31990   0.23832   0.47237   1.000
    H75     H    0.81984   0.23823   0.47241   1.000
    H76     H    0.41933   0.15541   0.66482   1.000
    H77     H    0.91930   0.15535   0.66485   1.000
    H78     H    0.50075   0.06031   0.64857   1.000
    H79     H    0.00000   0.06029   0.64858   1.000
    H80     H    0.43572   0.02005   0.36254   1.000
    H81     H    0.93571   0.02003   0.36255   1.000
    H82     H    0.35486   0.11560   0.37965   1.000
    H83     H    0.85483   0.11555   0.37968   1.000
    H84     H    0.08750   0.58043   0.48994   1.000
    H85     H    0.58751   0.58040   0.48993   1.000
    H86     H    0.14421   0.60321   0.63790   1.000
    H87     H    0.64421   0.60319   0.63794   1.000
    H88     H    0.51178   0.47280   0.77695   1.000
    H89     H    0.00000   0.47277   0.77695   1.000
    H90     H    0.45508   0.44733   0.62840   1.000
    H91     H    0.95509   0.44731   0.62841   1.000
    C92     C    0.67255   0.37435   0.59820   1.000
    C93     C    0.21911   0.42901   0.58852   1.000
    C94     C    0.71910   0.42907   0.58850   1.000
    C95     C    0.22548   0.47012   0.50462   1.000
    H96     H    0.09275   0.56197   0.86661   1.000
    H97     H    0.59274   0.56197   0.86661   1.000
    H98     H    0.15299   0.59819   0.80697   1.000
    H99     H    0.65299   0.59820   0.80697   1.000
    H100    H    0.24770   0.50794   0.84920   1.000
    H101    H    0.74769   0.50794   0.84921   1.000
    H102    H    0.16026   0.28267   0.87617   1.000
    H103    H    0.66024   0.28267   0.87619   1.000
    H104    H    0.34057   0.08623   0.01690   1.000
    H105    H    0.84056   0.08625   0.01697   1.000
    H106    H    0.36745   0.89736   0.26410   1.000
    H107    H    0.86747   0.89737   0.26411   1.000
    H108    H    0.47603   0.68770   0.29171   1.000
    H109    H    0.97603   0.68770   0.29170   1.000
    H110    H    0.46379   0.65920   0.46630   1.000
    H111    H    0.96381   0.65922   0.46632   1.000
    H112    H    0.43017   0.73802   0.52700   1.000
    H113    H    0.93018   0.73804   0.52750   1.000
    H114    H    0.33065   0.65541   0.33511   1.000
    H115    H    0.83060   0.65552   0.33517   1.000
    H116    H    0.24920   0.56043   0.35137   1.000
    H117    H    0.74915   0.56055   0.35144   1.000
    H118    H    0.31430   0.51987   0.63734   1.000
    H119    H    0.81441   0.51973   0.63730   1.000
    H120    H    0.39519   0.61528   0.62021   1.000
    H121    H    0.89528   0.61517   0.62017   1.000
    H122    H    0.16238   0.08039   0.50980   1.000
    H123    H    0.66243   0.08036   0.51000   1.000
    C124    C    0.06994   0.55529   0.55139   1.000
    C125    C    0.56995   0.55528   0.55138   1.000
    C126    C    0.10238   0.56920   0.63630   1.000
    C127    C    0.60238   0.56919   0.63630   1.000
    C128    C    0.08275   0.53911   0.71855   1.000
    H129    H    0.10568   0.10319   0.36185   1.000
    H130    H    0.60573   0.10317   0.36196   1.000
    H131    H    0.23827   0.97295   0.22293   1.000
    H132    H    0.73827   0.97279   0.22306   1.000
    H133    H    0.29496   0.94748   0.37148   1.000
    H134    H    0.79494   0.94730   0.37160   1.000
    H135    H    0.15722   0.06197   0.13319   1.000
    H136    H    0.65726   0.06191   0.13332   1.000
    H137    H    0.09697   0.09827   0.19277   1.000
    H138    H    0.59701   0.09823   0.19289   1.000
    H139    H    0.00229   0.00809   0.15030   1.000
    H140    H    0.50232   0.00809   0.15038   1.000
    H141    H    0.08979   0.78270   0.12403   1.000
    H142    H    0.58977   0.78267   0.12408   1.000
    H143    H    0.40941   0.58632   0.98264   1.000
    H144    H    0.90941   0.58631   0.98260   1.000
    C145    C    0.13946   0.65664   0.29397   1.000
    C146    C    0.63944   0.65659   0.29398   1.000
    C147    C    0.19555   0.76314   0.30604   1.000
    C148    C    0.69552   0.76310   0.30600   1.000
    C149    C    0.17327   0.80316   0.46773   1.000
    C150    C    0.67323   0.80309   0.46778   1.000
    C151    C    0.11963   0.85778   0.47600   1.000
    C152    C    0.61960   0.85772   0.47604   1.000
    C153    C    0.07745   0.87433   0.40170   1.000
    C154    C    0.57742   0.87428   0.40173   1.000
    C155    C    0.03090   0.92911   0.41137   1.000
    C156    C    0.53089   0.92909   0.41138   1.000
    C157    C    0.02448   0.97009   0.49531   1.000
    C158    C    0.52447   0.97008   0.49532   1.000
    C159    C    0.06676   0.95138   0.57006   1.000
    C160    C    0.56674   0.95136   0.57000   1.000
    C161    C    0.11312   0.89640   0.56070   1.000
    C162    C    0.61309   0.89636   0.56073   1.000
    C163    C    0.48327   0.49062   0.45467   1.000
    C164    C    0.98327   0.49062   0.45467   1.000
    C165    C    0.43003   0.44475   0.44856   1.000
    C166    C    0.93004   0.44474   0.44856   1.000
    C167    C    0.39760   0.43084   0.36364   1.000
    C168    C    0.89760   0.43083   0.36364   1.000
    C169    C    0.41723   0.46092   0.28140   1.000
    C170    C    0.91722   0.46092   0.28140   1.000
    C171    C    0.47140   0.50366   0.28592   1.000
    C172    C    0.97139   0.50369   0.28593   1.000
    C173    C    0.00344   0.51837   0.37088   1.000
    C174    C    0.50345   0.51835   0.37088   1.000
    C175    C    0.37983   0.45126   0.19043   1.000
    C176    C    0.87982   0.45126   0.19044   1.000
    C177    C    0.28679   0.53834   0.14868   1.000
    C178    C    0.78678   0.53835   0.14800   1.000
    C179    C    0.33262   0.65253   0.13516   1.000
    C180    C    0.83260   0.65254   0.13510   1.000
    C181    C    0.24807   0.83782   0.08376   1.000
    C182    C    0.74807   0.83786   0.08385   1.000
    C183    C    0.25146   0.91930   0.03563   1.000
    C184    C    0.75145   0.91932   0.03500   1.000
    C185    C    0.30338   0.96812   0.04448   1.000
    C186    C    0.80337   0.96814   0.04453   1.000
    C187    C    0.19927   0.95175   0.98985   1.000
    C188    C    0.69926   0.95177   0.98991   1.000
    C189    C    0.36311   0.93619   0.08425   1.000
    C190    C    0.86311   0.93620   0.08428   1.000
    C191    C    0.11033   0.15663   0.70593   1.000
    C192    C    0.61034   0.15664   0.70594   1.000
    C193    C    0.05435   0.26329   0.69392   1.000
    C194    C    0.55435   0.26330   0.69392   1.000
    C195    C    0.07666   0.30335   0.53223   1.000
    C196    C    0.57668   0.30336   0.53224   1.000
    C197    C    0.13031   0.35790   0.52394   1.000
    C198    C    0.63034   0.35790   0.52395   1.000
    C199    C    0.17256   0.37428   0.59800   1.000
    O200    O    0.62036   0.13190   0.95267   1.000
    O201    O    0.10628   0.00000   0.85493   1.000
    O202    O    0.60629   0.00000   0.85494   1.000
    O203    O    0.46274   0.71621   0.04137   1.000
    O204    O    0.96273   0.71622   0.04134   1.000
    O205    O    0.02621   0.67283   0.16092   1.000
    O206    O    0.52621   0.67280   0.16095   1.000
    O207    O    0.12961   0.63191   0.04721   1.000
    C208    C    0.72551   0.47011   0.50464   1.000
    C209    C    0.18314   0.45157   0.42992   1.000
    C210    C    0.68321   0.45150   0.42990   1.000
    C211    C    0.13678   0.39665   0.43928   1.000
    C212    C    0.63684   0.39658   0.43927   1.000
    C213    C    0.26669   0.99066   0.54521   1.000
    C214    C    0.76671   0.99056   0.54533   1.000
    C215    C    0.31996   0.94480   0.55136   1.000
    C216    C    0.82000   0.94473   0.55147   1.000
    C217    C    0.35239   0.93087   0.63629   1.000
    C218    C    0.85243   0.93081   0.63641   1.000
    C219    C    0.33273   0.96093   0.71852   1.000
    C220    C    0.83276   0.96085   0.71864   1.000
    C221    C    0.27853   0.00000   0.71396   1.000
    C222    C    0.77854   0.00000   0.71408   1.000
    C223    C    0.24649   0.01837   0.62899   1.000
    C224    C    0.74650   0.01823   0.62911   1.000
    C225    C    0.37013   0.95126   0.80951   1.000
    C226    C    0.87016   0.95120   0.80962   1.000
    C227    C    0.46316   0.03826   0.85140   1.000
    C228    C    0.96318   0.03824   0.85146   1.000
    C229    C    0.41731   0.15252   0.86457   1.000
    C230    C    0.91731   0.15248   0.86463   1.000
    C231    C    0.50195   0.33764   0.91664   1.000
    C232    C    0.00000   0.33763   0.91667   1.000
    C233    C    0.49853   0.41922   0.96454   1.000
    C234    C    0.99853   0.41921   0.96455   1.000
    C235    C    0.44661   0.46809   0.95549   1.000
    C236    C    0.94661   0.46808   0.95549   1.000
    C237    C    0.05072   0.45172   0.01025   1.000
    C238    C    0.55071   0.45172   0.01024   1.000
    C239    C    0.38688   0.43616   0.91572   1.000
    C240    C    0.88688   0.43615   0.91572   1.000
    C241    C    0.36053   0.34343   0.70596   1.000
    C242    C    0.86051   0.34338   0.70596   1.000
    C243    C    0.30445   0.23692   0.69380   1.000
    C244    C    0.80442   0.23688   0.69389   1.000
    C245    C    0.32675   0.19694   0.53215   1.000
    C246    C    0.82670   0.19686   0.53220   1.000
    C247    C    0.38038   0.14230   0.52389   1.000
    C248    C    0.88034   0.14225   0.52392   1.000
    C249    C    0.42256   0.12574   0.59820   1.000
    C250    C    0.92253   0.12570   0.59823   1.000
    C251    C    0.46909   0.07094   0.58855   1.000
    C252    C    0.96907   0.07091   0.58856   1.000
    C253    C    0.47551   0.02995   0.50461   1.000
    C254    C    0.97550   0.02994   0.50462   1.000
    C255    C    0.43324   0.04868   0.42985   1.000
    C256    C    0.93322   0.04865   0.42987   1.000
    C257    C    0.38689   0.10367   0.43920   1.000
    C258    C    0.88686   0.10363   0.43920   1.000
    C259    C    0.01670   0.50942   0.54527   1.000
    C260    C    0.51670   0.50942   0.54527   1.000
    C261    C    0.58275   0.53912   0.71855   1.000
    C262    C    0.02859   0.49636   0.71402   1.000
    C263    C    0.52858   0.49638   0.71402   1.000
    C264    C    0.49653   0.48169   0.62907   1.000
    C265    C    0.99653   0.48168   0.62907   1.000
    C266    C    0.12016   0.54877   0.80951   1.000
    C267    C    0.62015   0.54877   0.80951   1.000
    C268    C    0.21320   0.46167   0.85125   1.000
    C269    C    0.71319   0.46168   0.85126   1.000
    C270    C    0.16737   0.34748   0.86476   1.000
    C271    C    0.66736   0.34749   0.86477   1.000
    C272    C    0.25191   0.16217   0.91609   1.000
    C273    C    0.75191   0.16220   0.91618   1.000
    C274    C    0.24852   0.08069   0.96423   1.000
    C275    C    0.74852   0.08072   0.96400   1.000
    C276    C    0.19661   0.03188   0.95500   1.000
    C277    C    0.69660   0.03190   0.95545   1.000
    C278    C    0.30072   0.04824   0.01002   1.000
    C279    C    0.80071   0.04827   0.01008   1.000
    C280    C    0.13687   0.06381   0.91560   1.000
    C281    C    0.63686   0.06382   0.91568   1.000
    C282    C    0.38963   0.84339   0.29399   1.000
    C283    C    0.88964   0.84340   0.29400   1.000
    C284    C    0.44563   0.73673   0.30602   1.000
    C285    C    0.94563   0.73674   0.30602   1.000
    C286    C    0.42330   0.69668   0.46771   1.000
    C287    C    0.92332   0.69669   0.46770   1.000
    C288    C    0.36965   0.64214   0.47599   1.000
    C289    C    0.86967   0.64214   0.47600   1.000
    C290    C    0.32743   0.62569   0.40171   1.000
    C291    C    0.82742   0.62575   0.40175   1.000
    C292    C    0.28088   0.57097   0.41138   1.000
    C293    C    0.78087   0.57103   0.41142   1.000
    C294    C    0.27447   0.52993   0.49530   1.000
    C295    C    0.77450   0.52992   0.49532   1.000
    C296    C    0.31677   0.54854   0.57004   1.000
    C297    C    0.81684   0.54847   0.57003   1.000
    C298    C    0.36314   0.60345   0.56060   1.000
    C299    C    0.86320   0.60339   0.56066   1.000
    C300    C    0.23326   0.00947   0.45459   1.000
    C301    C    0.73328   0.00937   0.45471   1.000
    C302    C    0.17997   0.05530   0.44845   1.000
    C303    C    0.68001   0.05523   0.44856   1.000
    C304    C    0.14754   0.06921   0.36351   1.000
    C305    C    0.64758   0.06916   0.36363   1.000
    C306    C    0.16721   0.03918   0.28128   1.000
    C307    C    0.66724   0.03910   0.28140   1.000
    C308    C    0.22143   0.99648   0.28584   1.000
    C309    C    0.72144   0.99636   0.28596   1.000
    C310    C    0.25347   0.98180   0.37081   1.000
    C311    C    0.75348   0.98166   0.37090   1.000
    C312    C    0.12981   0.04882   0.19030   1.000
    C313    C    0.62984   0.04876   0.19042   1.000
    C314    C    0.03679   0.96178   0.14846   1.000
    C315    C    0.53681   0.96176   0.14853   1.000
    C316    C    0.08266   0.84754   0.13530   1.000
    C317    C    0.58266   0.84751   0.13530   1.000
    C318    C    0.99802   0.66239   0.08326   1.000
    C319    C    0.49802   0.66238   0.08329   1.000
    C320    C    0.00145   0.58081   0.03538   1.000
    C321    C    0.50144   0.58080   0.03540   1.000
    C322    C    0.05337   0.53193   0.04445   1.000
    C323    C    0.55337   0.53193   0.04445   1.000
    C324    C    0.44926   0.54829   0.98970   1.000
    C325    C    0.94926   0.54829   0.98960   1.000
    C326    C    0.11309   0.56386   0.08422   1.000
    C327    C    0.61309   0.56386   0.08422   1.000
    N328    N    0.17764   0.70301   0.24694   1.000
    N329    N    0.67762   0.70298   0.24697   1.000
    N330    N    0.13303   0.68442   0.37825   1.000
    N331    N    0.63300   0.68436   0.37826   1.000
    N332    N    0.16925   0.75243   0.38470   1.000
    N333    N    0.66921   0.75237   0.38482   1.000
    N334    N    0.27698   0.61790   0.12898   1.000
    N335    N    0.77697   0.61791   0.12899   1.000
    N336    N    0.37579   0.59919   0.15787   1.000
    N337    N    0.87578   0.59920   0.15788   1.000
    N338    N    0.34593   0.52683   0.16500   1.000
    N339    N    0.84592   0.52684   0.16590   1.000
    N340    N    0.07220   0.20308   0.75299   1.000
    N341    N    0.57220   0.20308   0.75299   1.000
    N342    N    0.11680   0.18446   0.62168   1.000
    N343    N    0.61681   0.18447   0.62169   1.000
    N344    N    0.08065   0.25258   0.61518   1.000
    N345    N    0.58067   0.25259   0.61510   1.000
    N346    N    0.47296   0.11782   0.87100   1.000
    N347    N    0.97296   0.11781   0.87104   1.000
    N348    N    0.37416   0.09921   0.84180   1.000
    N349    N    0.87416   0.09916   0.84188   1.000
    N350    N    0.40402   0.00000   0.83400   1.000
    N351    N    0.90404   0.00000   0.83409   1.000
    N352    N    0.32235   0.29704   0.75290   1.000
    N353    N    0.82234   0.29701   0.75299   1.000
    N354    N    0.36697   0.31566   0.62168   1.000
    N355    N    0.86694   0.31560   0.62169   1.000
    N356    N    0.33076   0.24765   0.61511   1.000
    N357    N    0.83073   0.24759   0.61510   1.000
    N358    N    0.22301   0.38211   0.87094   1.000
    N359    N    0.72300   0.38212   0.87096   1.000
    N360    N    0.12419   0.40083   0.84206   1.000
    N361    N    0.62418   0.40084   0.84206   1.000
    N362    N    0.15406   0.47319   0.83404   1.000
    N363    N    0.65405   0.47320   0.83405   1.000
    N364    N    0.42778   0.79695   0.24694   1.000
    N365    N    0.92778   0.79695   0.24694   1.000
    N366    N    0.38316   0.81556   0.37824   1.000
    N367    N    0.88318   0.81557   0.37825   1.000
    N368    N    0.41931   0.74745   0.38476   1.000
    N369    N    0.91933   0.74745   0.38476   1.000
    N370    N    0.02701   0.88221   0.12880   1.000
    N371    N    0.52702   0.88220   0.12893   1.000
    N372    N    0.12581   0.90086   0.15804   1.000
    N373    N    0.62582   0.90081   0.15812   1.000
    N374    N    0.09593   0.97326   0.16580   1.000
    N375    N    0.59595   0.97321   0.16593   1.000
    O376    O    0.21282   0.78396   0.04192   1.000
    O377    O    0.71284   0.78398   0.04201   1.000
    O378    O    0.27628   0.82751   0.16143   1.000
    O379    O    0.77627   0.82759   0.16153   1.000
    O380    O    0.37962   0.86811   0.04728   1.000
    O381    O    0.87960   0.86812   0.04731   1.000
    O382    O    0.39368   0.97607   0.14500   1.000
    O383    O    0.89370   0.97608   0.14501   1.000
    O384    O    0.03724   0.28380   0.95859   1.000
    O385    O    0.53723   0.28380   0.95855   1.000
    O386    O    0.47376   0.32723   0.83897   1.000
    O387    O    0.97376   0.32720   0.83900   1.000
    O388    O    0.37037   0.36810   0.95272   1.000
    O389    O    0.87036   0.36811   0.95273   1.000
    O390    O    0.35632   0.47607   0.85495   1.000
    O391    O    0.85632   0.47606   0.85494   1.000
    O392    O    0.28714   0.21604   0.95794   1.000
    O393    O    0.78716   0.21606   0.95802   1.000
    O394    O    0.22371   0.17245   0.83840   1.000
    O395    O    0.72369   0.17253   0.83851   1.000
    O396    O    0.12038   0.13189   0.95264   1.000
    O397    O    0.62961   0.63191   0.04722   1.000
    O398    O    0.14365   0.52395   0.14500   1.000
    O399    O    0.64365   0.52394   0.14499   1.000
loop_
    _geom_bond_atom_site_label_1
    _geom_bond_atom_site_label_2
    _geom_bond_distance
    _geom_bond_site_symmetry_2
    _ccdc_geom_bond_type
    C278   H104      1.08780      .   S
    C278   C185      1.39832  1_545   S
    C278   C274      1.40036  1_554   S
    C279   H105      1.08780      .   S
    C279   C186      1.39827  1_545   S
    C279   C275      1.40205  1_554   S
    C238   H67       1.08783      .   S
    C238   C323      1.39848      .   S
    C238   C233      1.40041  1_554   S
    C237   H66       1.08782      .   S
    C237   C322      1.39849      .   S
    C237   C234      1.40048  1_454   S
    C184   C186      1.41122      .   S
    C184   C182      1.51095      .   S
    C184   C188      1.39633  1_554   S
    C320   C322      1.41117      .   S
    C320   C318      1.50633  1_455   S
    C320   C325      1.40095  1_454   S
    C321   C323      1.41114      .   S
    C321   C319      1.50627      .   S
    C321   C324      1.40044  1_554   S
    C183   C185      1.41104      .   S
    C183   C181      1.50621      .   S
    C183   C187      1.40032  1_554   S
    O204   C318      1.29759      .   S
    O203   C319      1.29754      .   S
    O376   C181      1.29753      .   S
    O377   C182      1.29750      .   S
    C322   C326      1.50768      .   S
    C323   C327      1.50769      .   S
    C185   C189      1.50754      .   S
    C186   C190      1.50754      .   S
    O207   C326      1.30181      .   S
    O397   C327      1.30180      .   S
    O380   C189      1.30179      .   S
    O381   C190      1.30178      .   S
    C318   O205      1.25396  1_655   S
    C319   O206      1.25391      .   S
    C181   O378      1.25387      .   S
    C182   O379      1.25376      .   S
    C327   O399      1.25080      .   S
    C326   O398      1.25083      .   S
    C189   O382      1.25079      .   S
    C190   O383      1.25075      .   S
    H30    C179      1.08415      .   S
    H31    C180      1.08397      .   S
    H141   C316      1.08412      .   S
    H142   C317      1.08398      .   S
    N370   C316      1.37018      .   S
    N370   C314      1.34270      .   S
    N371   C317      1.37020      .   S
    N371   C315      1.34246      .   S
    N334   C179      1.37017      .   S
    N334   C177      1.34239      .   S
    N335   C180      1.37017      .   S
    N335   C178      1.34044      .   S
    H135   C312      1.09861      .   S
    H24    C175      1.09893      .   S
    H25    C176      1.09902      .   S
    H136   C313      1.09858      .   S
    C180   N337      1.32389      .   S
    C179   N336      1.32369      .   S
    C317   N373      1.32378      .   S
    C316   N372      1.32365      .   S
    C178   H29       1.08655      .   S
    C178   N339      1.34688      .   S
    C314   H139      1.08543  1_565   S
    C314   N374      1.34598      .   S
    C315   H140      1.08545  1_565   S
    C315   N375      1.34604      .   S
    C177   H28       1.08557      .   S
    C177   N338      1.34472      .   S
    N336   N338      1.36700      .   S
    N337   N339      1.36862      .   S
    N372   N374      1.36843      .   S
    N373   N375      1.36849      .   S
    N338   C175      1.47847      .   S
    N374   C312      1.47608  1_565   S
    N339   C176      1.47592      .   S
    N375   C313      1.47599  1_565   S
    C312   H137      1.09688      .   S
    C312   C306      1.50839      .   S
    C313   H138      1.09688      .   S
    C313   C307      1.50836      .   S
    C175   H26       1.09689      .   S
    C175   C169      1.50840      .   S
    C176   H27       1.09686      .   S
    C176   C170      1.50829      .   S
    H21    C171      1.12767      .   S
    H131   C308      1.08968      .   S
    H20    C172      1.08981      .   S
    H132   C309      1.08961      .   S
    N328   C145      1.37250      .   S
    N328   C147      1.34071      .   S
    N365   C283      1.37261      .   S
    N365   C285      1.34075      .   S
    N364   C282      1.37259      .   S
    N364   C284      1.34074      .   S
    N329   C146      1.37251      .   S
    N329   C148      1.33995      .   S
    H1     C146      1.08286      .   S
    H0     C145      1.08282      .   S
    H106   C282      1.08286      .   S
    H107   C283      1.08289      .   S
    C306   C308      1.40173  1_545   S
    C306   C304      1.39861      .   S
    C169   C171      1.40172      .   S
    C169   C167      1.39855      .   S
    C307   C309      1.40174  1_545   S
    C307   C305      1.39864      .   S
    C170   C172      1.40173      .   S
    C170   C168      1.39858      .   S
    C308   C310      1.39166      .   S
    C171   C174      1.39175      .   S
    C172   C173      1.39166  1_655   S
    C309   C311      1.39128      .   S
    H109   C285      1.08480      .   S
    H108   C284      1.08478      .   S
    H2     C147      1.08486      .   S
    H3     C148      1.08458      .   S
    C145   N330      1.32449      .   S
    C146   N331      1.32446      .   S
    C282   N366      1.32438      .   S
    C283   N367      1.32433      .   S
    C148   N333      1.34646      .   S
    C285   N369      1.34532      .   S
    C284   N368      1.34541      .   S
    C147   N332      1.34426      .   S
    H8     C153      1.08935      .   S
    H9     C154      1.08942      .   S
    H114   C290      1.08930      .   S
    H115   C291      1.08932      .   S
    H10    C155      1.08824  1_655   S
    H11    C156      1.08820      .   S
    H116   C292      1.08820      .   S
    H117   C293      1.08821      .   S
    H129   C304      1.09178      .   S
    H130   C305      1.09177      .   S
    H18    C167      1.09178      .   S
    H19    C168      1.09178      .   S
    H80    C255      1.08868      .   S
    H81    C256      1.08874      .   S
    H47    C210      1.08864      .   S
    H46    C209      1.08871      .   S
    C304   C302      1.39307      .   S
    C305   C303      1.39295      .   S
    C168   C166      1.39300      .   S
    C167   C165      1.39299      .   S
    C310   H133      1.08821      .   S
    C310   C300      1.41046  1_565   S
    C174   H23       1.08822      .   S
    C174   C163      1.41051      .   S
    C173   H22       1.08826      .   S
    C173   C164      1.41057  1_455   S
    C311   H134      1.08819      .   S
    C311   C301      1.41089  1_565   S
    N366   N368      1.37517      .   S
    N330   N332      1.37512      .   S
    N367   N369      1.37517      .   S
    N331   N333      1.37513      .   S
    H82    C257      1.09157      .   S
    H83    C258      1.09130      .   S
    H49    C212      1.09191      .   S
    H48    C211      1.09153      .   S
    N332   C149      1.45774      .   S
    N369   C287      1.45664      .   S
    N368   C286      1.45680      .   S
    N333   C150      1.45674      .   S
    C153   C155      1.39384      .   S
    C153   C151      1.39707      .   S
    C290   C292      1.39388      .   S
    C290   C288      1.39709      .   S
    C154   C156      1.39381      .   S
    C154   C152      1.39710      .   S
    C291   C293      1.39386      .   S
    C291   C289      1.39707      .   S
    C155   C157      1.40833      .   S
    C156   C158      1.40841      .   S
    C292   C294      1.40836      .   S
    C293   C295      1.40847      .   S
    C255   C257      1.39193      .   S
    C255   C253      1.41020      .   S
    C256   C258      1.39187      .   S
    C256   C254      1.41017      .   S
    C210   C212      1.39199      .   S
    C210   C208      1.41026      .   S
    C209   C211      1.39196      .   S
    C209   C95       1.41015      .   S
    C258   C248      1.40094      .   S
    C257   C247      1.40062      .   S
    C212   C198      1.40066      .   S
    C211   C197      1.40072      .   S
    C302   C300      1.40949      .   S
    C302   H122      1.08678      .   S
    C303   C301      1.40949      .   S
    C303   H123      1.08795      .   S
    C166   C164      1.40944      .   S
    C166   H17       1.08789      .   S
    C165   C163      1.40943      .   S
    C165   H16       1.08786      .   S
    C300   C213      1.48661  1_545   S
    C164   C259      1.48661  1_655   S
    C163   C260      1.48658      .   S
    C301   C214      1.48661  1_545   S
    H110   C286      1.09936      .   S
    H4     C149      1.09936      .   S
    H111   C287      1.09932      .   S
    H5     C150      1.09937      .   S
    C287   C289      1.51426      .   S
    C287   H113      1.09890      .   S
    C286   C288      1.51422      .   S
    C286   H112      1.09311      .   S
    C149   C151      1.51414      .   S
    C149   H6        1.09870      .   S
    C150   C152      1.51416      .   S
    C150   H7        1.09871      .   S
    H74    C245      1.09872      .   S
    H75    C246      1.09872      .   S
    H40    C195      1.09876      .   S
    H41    C196      1.09871      .   S
    C288   C298      1.39977      .   S
    C289   C299      1.40073      .   S
    C151   C161      1.40071      .   S
    C152   C162      1.40063      .   S
    H50    C215      1.08795      .   S
    H85    C125      1.08784      .   S
    H84    C124      1.08788      .   S
    H51    C216      1.08826      .   S
    C294   C95       1.48808      .   S
    C294   C296      1.41026      .   S
    C157   C254      1.48792  1_465   S
    C157   C159      1.41019      .   S
    C295   C208      1.48807      .   S
    C295   C297      1.41026      .   S
    C158   C253      1.48781  1_565   S
    C158   C160      1.40938      .   S
    C253   C251      1.40841      .   S
    C254   C252      1.40831      .   S
    C95    C93       1.40846      .   S
    C208   C94       1.40760      .   S
    C247   C245      1.51416      .   S
    C247   C249      1.39709      .   S
    C248   C246      1.51418      .   S
    C248   C250      1.39715      .   S
    C197   C195      1.51424      .   S
    C197   C199      1.39511      .   S
    C198   C196      1.51425      .   S
    C198   C92       1.39677      .   S
    C245   H72       1.09936      .   S
    C245   N356      1.45671      .   S
    C246   H73       1.09935      .   S
    C246   N357      1.45616      .   S
    C195   H38       1.09935      .   S
    C195   N344      1.45681      .   S
    C196   H39       1.09935      .   S
    C196   N345      1.45578      .   S
    C213   C215      1.40948      .   S
    C213   C223      1.41050  1_565   S
    C260   C125      1.40943      .   S
    C260   C264      1.41062      .   S
    C259   C124      1.40943      .   S
    C259   C265      1.41069  1_455   S
    C214   C216      1.40949      .   S
    C214   C224      1.41046  1_565   S
    C215   C217      1.39295      .   S
    C125   C127      1.39300      .   S
    C124   C126      1.39289      .   S
    C216   C218      1.39307      .   S
    C298   C296      1.39215      .   S
    C298   H120      1.09236      .   S
    C299   C297      1.39197      .   S
    C299   H121      1.09154      .   S
    C161   C159      1.39194      .   S
    C161   H14       1.09154      .   S
    C162   C160      1.39173      .   S
    C162   H15       1.09149      .   S
    C160   H13       1.08856      .   S
    C297   H119      1.08859      .   S
    C296   H118      1.08865      .   S
    C159   H12       1.08863      .   S
    C94    C92       1.39396      .   S
    C94    H45       1.08896      .   S
    C93    C199      1.39341      .   S
    C93    H44       1.08820      .   S
    C251   C249      1.39382      .   S
    C251   H78       1.08819      .   S
    C252   C250      1.39383      .   S
    C252   H79       1.07863  1_655   S
    C199   H42       1.09190      .   S
    C249   H76       1.08941      .   S
    C92    H43       1.08980      .   S
    C250   H77       1.08934      .   S
    N345   N343      1.37520      .   S
    N345   C194      1.34644      .   S
    N357   N355      1.37516      .   S
    N357   C244      1.34595      .   S
    N356   N354      1.37514      .   S
    N356   C243      1.34478      .   S
    N344   N342      1.37517      .   S
    N344   C193      1.34533      .   S
    N354   C241      1.32444      .   S
    N342   C191      1.32438      .   S
    N343   C192      1.32443      .   S
    N355   C242      1.32434      .   S
    H56    C223      1.08822      .   S
    H90    C264      1.08820      .   S
    H57    C224      1.08818      .   S
    H91    C265      1.08819      .   S
    C223   C221      1.40317      .   S
    C265   C262      1.39167  1_655   S
    C264   C263      1.39163      .   S
    C224   C222      1.40273      .   S
    C217   H52       1.09177      .   S
    C217   C219      1.39864      .   S
    C127   H87       1.09178      .   S
    C127   C261      1.39867      .   S
    C126   H86       1.09180      .   S
    C126   C128      1.39871      .   S
    C218   H53       1.09177      .   S
    C218   C220      1.39861      .   S
    C243   H70       1.08504      .   S
    C243   N352      1.34053      .   S
    C244   H71       1.08486      .   S
    C244   N353      1.34068      .   S
    C194   H37       1.08482      .   S
    C194   N341      1.34070      .   S
    C193   H36       1.08483      .   S
    C193   N340      1.34072      .   S
    C191   H34       1.08286      .   S
    C191   N340      1.37257      .   S
    C192   H35       1.08273      .   S
    C192   N341      1.37255      .   S
    C242   H69       1.08287      .   S
    C242   N353      1.37252      .   S
    C241   H68       1.08286      .   S
    C241   N352      1.37197      .   S
    C221   C219      1.37298  1_545   S
    C221   H54       1.11212      .   S
    C263   C261      1.40171      .   S
    C263   H88       1.08975      .   S
    C262   C128      1.40172      .   S
    C262   H89       1.22605      .   S
    C222   C220      1.37396  1_545   S
    C222   H55       1.11134      .   S
    C219   C225      1.50848      .   S
    C261   C267      1.50830      .   S
    C128   C266      1.50832      .   S
    C220   C226      1.50838      .   S
    H98    C266      1.09688      .   S
    H99    C267      1.09688      .   S
    H60    C225      1.09688      .   S
    H61    C226      1.09691      .   S
    C267   N363      1.47591      .   S
    C267   H97       1.09857      .   S
    C266   N362      1.47590      .   S
    C266   H96       1.09854      .   S
    C225   N350      1.13672  1_565   S
    C225   H58       1.09847      .   S
    C226   N351      1.13710  1_565   S
    C226   H59       1.09862      .   S
    N350   N348      1.75959      .   S
    N350   C227      1.47195      .   S
    N362   N360      1.36861      .   S
    N362   C268      1.34590      .   S
    N363   N361      1.36859      .   S
    N363   C269      1.34591      .   S
    N351   N349      1.75892      .   S
    N351   C228      1.47176      .   S
    O394   C272      1.25397      .   S
    O395   C273      1.25391      .   S
    O386   C231      1.25395      .   S
    O387   C232      1.23598  1_655   S
    N348   C229      1.32365      .   S
    N349   C230      1.32367      .   S
    N361   C271      1.32369      .   S
    N360   C270      1.32368      .   S
    H100   C268      1.08558      .   S
    H101   C269      1.08557      .   S
    H62    C227      1.08545  1_565   S
    H63    C228      1.08544  1_565   S
    C268   N358      1.34238      .   S
    C269   N359      1.34240      .   S
    C227   N346      1.34247      .   S
    C228   N347      1.34248      .   S
    O201   C280      1.49106      .   S
    O391   C240      1.25083      .   S
    O202   C281      1.49162      .   S
    O390   C239      1.25077      .   S
    C229   N346      1.37022      .   S
    C229   H64       1.08410      .   S
    C230   N347      1.37020      .   S
    C230   H65       1.08412      .   S
    C270   N358      1.37018      .   S
    C270   H102      1.08413      .   S
    C271   N359      1.37015      .   S
    C271   H103      1.08416      .   S
    C280   O396      1.30217      .   S
    C280   C276      1.50603      .   S
    C281   O200      1.30186      .   S
    C281   C277      1.50756      .   S
    C239   O388      1.30180      .   S
    C239   C235      1.50769      .   S
    C240   O389      1.30180      .   S
    C240   C236      1.50769      .   S
    C272   O392      1.29750      .   S
    C272   C274      1.50620      .   S
    C273   O393      1.29747      .   S
    C273   C275      1.50417      .   S
    C231   O385      1.29751      .   S
    C231   C233      1.50628      .   S
    C232   O384      1.32318      .   S
    C232   C234      1.50284  1_455   S
    C276   C274      1.41112      .   S
    C276   C187      1.40035  1_545   S
    C277   C275      1.41095      .   S
    C277   C188      1.39834  1_545   S
    C236   C234      1.41116      .   S
    C236   C325      1.39803      .   S
    C235   C233      1.41113      .   S
    C235   C324      1.39846      .   S
    H144   C325      1.08782      .   S
    H143   C324      1.08782      .   S
    H32    C187      1.08781      .   S
    H33    C188      1.08781      .   S
