# CIF file generated by openbabel 2.4.90, see http://openbabel.sf.net
data_I
_chemical_name_common ''
_cell_length_a 22.522
_cell_length_b 16.308
_cell_length_c 14.511
_cell_angle_alpha 89.989
_cell_angle_beta 95.208
_cell_angle_gamma 89.979
_space_group_name_H-M_alt 'P 1'
_space_group_name_Hall 'P 1'
loop_
    _symmetry_equiv_pos_as_xyz
    x,y,z
loop_
    _atom_site_label
    _atom_site_type_symbol
    _atom_site_fract_x
    _atom_site_fract_y
    _atom_site_fract_z
    _atom_site_occupancy
    N0      N    0.99997   0.00001   0.49996   1.000
    N1      N    0.49999   0.50002   0.49987   1.000
    N2      N    0.49999   0.00001   0.49996   1.000
    N3      N    0.24999   0.99880   0.99992   1.000
    N4      N    0.74999   0.99882   0.99995   1.000
    N5      N    0.24998   0.50002   0.49995   1.000
    N6      N    0.75000   0.50002   0.49997   1.000
    N7      N    0.75000   0.99922   0.50001   1.000
    N8      N    0.24997   0.99928   0.49991   1.000
    N9      N    0.99969   0.50002   0.49995   1.000
    N10     N    0.49999   0.50001   0.99997   1.000
    N11     N    0.99989   0.50001   0.99996   1.000
    Zr12    Zr   0.20010   0.68386   0.11363   1.000
    O13     O    0.14124   0.63140   0.07691   1.000
    O14     O    0.21416   0.77511   0.07624   1.000
    O15     O    0.28468   0.62965   0.21211   1.000
    O16     O    0.14726   0.76529   0.22688   1.000
    Zr17    Zr   0.70009   0.68385   0.11360   1.000
    O18     O    0.78460   0.62965   0.21211   1.000
    O19     O    0.64126   0.63140   0.07689   1.000
    O20     O    0.64726   0.76528   0.22686   1.000
    O21     O    0.71416   0.77511   0.07624   1.000
    Zr22    Zr   0.04981   0.18386   0.88637   1.000
    O23     O    0.96525   0.12945   0.78786   1.000
    O24     O    0.03576   0.27539   0.92380   1.000
    O25     O    0.10265   0.26530   0.77309   1.000
    O26     O    0.10868   0.13110   0.92304   1.000
    Zr27    Zr   0.95017   0.81615   0.11357   1.000
    O28     O    0.96417   0.72462   0.07614   1.000
    O29     O    0.89130   0.86831   0.07688   1.000
    O30     O    0.89733   0.73472   0.22684   1.000
    O31     O    0.03473   0.87019   0.21206   1.000
    Zr32    Zr   0.54981   0.18386   0.88637   1.000
    O33     O    0.60867   0.13111   0.92305   1.000
    O34     O    0.46524   0.12946   0.78783   1.000
    O35     O    0.53578   0.27539   0.92379   1.000
    O36     O    0.60265   0.26530   0.77310   1.000
    Zr37    Zr   0.29989   0.31616   0.88630   1.000
    O38     O    0.35872   0.36861   0.92302   1.000
    O39     O    0.28582   0.22430   0.92366   1.000
    O40     O    0.21523   0.37037   0.78779   1.000
    O41     O    0.35272   0.23473   0.77304   1.000
    Zr42    Zr   0.79988   0.31616   0.88632   1.000
    O43     O    0.85869   0.36861   0.92303   1.000
    O44     O    0.78581   0.22431   0.92369   1.000
    O45     O    0.71529   0.37037   0.78779   1.000
    O46     O    0.85271   0.23473   0.77306   1.000
    Zr47    Zr   0.45017   0.81615   0.11358   1.000
    O48     O    0.53473   0.87017   0.21211   1.000
    O49     O    0.39733   0.73472   0.22684   1.000
    O50     O    0.46420   0.72462   0.07615   1.000
    O51     O    0.39131   0.86831   0.07688   1.000
loop_
    _geom_bond_atom_site_label_1
    _geom_bond_atom_site_label_2
    _geom_bond_distance
    _geom_bond_site_symmetry_2
    _ccdc_geom_bond_type
    Zr12   O13       1.62667      .   S
    N11    O13       3.91575  1_656   S
    Zr12   O14       1.62490      .   S
    N3     O14       3.91771  1_556   S
    Zr12   O15       2.44058      .   S
    N1     O15       6.46012      .   S
    Zr12   O16       2.49703      .   S
    N0     O16       6.61385  1_645   S
    Zr17   O18       2.43964      .   S
    N9     O18       6.45741      .   S
    Zr17   O19       1.62613      .   S
    N10    O19       3.91427  1_556   S
    Zr17   O20       2.49707      .   S
    N2     O20       6.61375  1_545   S
    Zr17   O21       1.62491      .   S
    N4     O21       3.91785  1_556   S
    Zr22   O23       2.44238  1_455   S
    N7     O23       6.46493  1_565   S
    Zr22   O24       1.62919      .   S
    N11    O24       3.93114  1_655   S
    Zr22   O25       2.49754      .   S
    N5     O25       6.61536      .   S
    Zr22   O26       1.62853      .   S
    N3     O26       3.92153  1_565   S
    Zr27   O28       1.62891      .   S
    N11    O28       3.93033  1_556   S
    Zr27   O29       1.62350      .   S
    N4     O29       3.90576  1_556   S
    Zr27   O30       2.49740      .   S
    N6     O30       6.61501      .   S
    Zr27   O31       2.43998  1_655   S
    N8     O31       6.45875      .   S
    Zr32   O33       1.62848      .   S
    N4     O33       3.92146  1_565   S
    Zr32   O34       2.44258      .   S
    N8     O34       6.46548  1_565   S
    Zr32   O35       1.62908      .   S
    N10    O35       3.93079      .   S
    Zr32   O36       2.49758      .   S
    N6     O36       6.61543      .   S
    Zr37   O38       1.62617      .   S
    N10    O38       3.91432      .   S
    Zr37   O39       1.63381      .   S
    N3     O39       3.94492  1_565   S
    Zr37   O40       2.44206      .   S
    N9     O40       6.46441  1_655   S
    Zr37   O41       2.49702      .   S
    N2     O41       6.61352      .   S
    Zr42   O43       1.62577      .   S
    N11    O43       3.91308      .   S
    Zr42   O44       1.63371      .   S
    N4     O44       3.94466  1_565   S
    Zr42   O45       2.44101      .   S
    N1     O45       6.46148      .   S
    Zr42   O46       2.49697      .   S
    N0     O46       6.61360      .   S
    Zr47   O48       2.44023      .   S
    N7     O48       6.45915      .   S
    Zr47   O49       2.49740      .   S
    N5     O49       6.61504      .   S
    Zr47   O50       1.62906      .   S
    N10    O50       3.93073  1_556   S
    Zr47   O51       1.62346      .   S
    N3     O51       3.90571  1_556   S
