# CIF file generated by openbabel 2.4.90, see http://openbabel.sf.net
data_I
_chemical_name_common ''
_cell_length_a 22.522
_cell_length_b 16.308
_cell_length_c 14.511
_cell_angle_alpha 89.989
_cell_angle_beta 95.208
_cell_angle_gamma 89.979
_space_group_name_H-M_alt 'P 1'
_space_group_name_Hall 'P 1'
loop_
    _symmetry_equiv_pos_as_xyz
    x,y,z
loop_
    _atom_site_label
    _atom_site_type_symbol
    _atom_site_fract_x
    _atom_site_fract_y
    _atom_site_fract_z
    _atom_site_occupancy
    Zr0     Zr   0.20010   0.68386   0.11363   1.000
    Zr1     Zr   0.70009   0.68385   0.11360   1.000
    Zr2     Zr   0.04981   0.18386   0.88637   1.000
    Zr3     Zr   0.54981   0.18386   0.88637   1.000
    Zr4     Zr   0.29989   0.31616   0.88630   1.000
    Zr5     Zr   0.79988   0.31616   0.88632   1.000
    Zr6     Zr   0.45017   0.81615   0.11358   1.000
    Zr7     Zr   0.95017   0.81615   0.11357   1.000
    N8      N    0.99997   0.00001   0.49996   1.000
    O9      O    0.09442   0.84672   0.34012   1.000
    O10     O    0.90554   0.15330   0.65981   1.000
    N11     N    0.49999   0.50002   0.49987   1.000
    O12     O    0.36926   0.57545   0.31059   1.000
    O13     O    0.63071   0.42458   0.68926   1.000
    N14     N    0.49999   0.00001   0.49996   1.000
    O15     O    0.59442   0.84671   0.34012   1.000
    O16     O    0.40555   0.15331   0.65978   1.000
    N17     N    0.24999   0.99880   0.99992   1.000
    O18     O    0.22822   0.86635   0.03885   1.000
    O19     O    0.33244   0.92047   0.04017   1.000
    O20     O    0.27175   0.13245   0.96102   1.000
    O21     O    0.16754   0.07834   0.95971   1.000
    N22     N    0.74999   0.99882   0.99995   1.000
    O23     O    0.66753   0.07835   0.95973   1.000
    O24     O    0.72823   0.86637   0.03888   1.000
    O25     O    0.83243   0.92048   0.04019   1.000
    O26     O    0.77175   0.13247   0.96106   1.000
    N27     N    0.24998   0.50002   0.49995   1.000
    O28     O    0.15549   0.34674   0.65981   1.000
    O29     O    0.34448   0.65328   0.34010   1.000
    N30     N    0.75000   0.50002   0.49997   1.000
    O31     O    0.65550   0.34674   0.65982   1.000
    O32     O    0.84449   0.65328   0.34011   1.000
    N33     N    0.75000   0.99922   0.50001   1.000
    O34     O    0.88069   0.07503   0.68936   1.000
    O35     O    0.61930   0.92420   0.31063   1.000
    N36     N    0.24997   0.99928   0.49991   1.000
    O37     O    0.38068   0.07506   0.68930   1.000
    O38     O    0.11928   0.92423   0.31055   1.000
    N39     N    0.99969   0.50002   0.49995   1.000
    O40     O    0.86911   0.57545   0.31062   1.000
    O41     O    0.13057   0.42458   0.68928   1.000
    N42     N    0.49999   0.50001   0.99997   1.000
    O43     O    0.47822   0.63310   0.03872   1.000
    O44     O    0.52175   0.36692   0.96121   1.000
    O45     O    0.41756   0.42107   0.95974   1.000
    O46     O    0.58242   0.57895   0.04019   1.000
    N47     N    0.99989   0.50001   0.99996   1.000
    O48     O    0.97817   0.63310   0.03871   1.000
    O49     O    0.02171   0.36692   0.96122   1.000
    O50     O    0.91750   0.42107   0.95974   1.000
    O51     O    0.08237   0.57895   0.04019   1.000
loop_
    _geom_bond_atom_site_label_1
    _geom_bond_atom_site_label_2
    _geom_bond_distance
    _geom_bond_site_symmetry_2
    _ccdc_geom_bond_type
    N8     O9        4.12891  1_645   S
    Zr0    O9        4.99406      .   S
    N8     O10       4.12871      .   S
    Zr5    O10       4.99394      .   S
    N11    O12       4.03158      .   S
    Zr0    O12       4.88115      .   S
    N11    O13       4.03251      .   S
    Zr5    O13       4.88202      .   S
    N14    O15       4.12878  1_545   S
    Zr1    O15       4.99414      .   S
    N14    O16       4.12861      .   S
    Zr4    O16       4.99405      .   S
    N17    O18       2.29680  1_556   S
    Zr0    O18       3.24981      .   S
    N17    O19       2.28531  1_556   S
    Zr6    O19       3.24691      .   S
    N17    O20       2.31513  1_565   S
    Zr4    O20       3.26762      .   S
    N17    O21       2.29613  1_565   S
    Zr2    O21       3.25706      .   S
    N22    O23       2.29612  1_565   S
    Zr3    O23       3.25695      .   S
    N22    O24       2.29690  1_556   S
    Zr1    O24       3.24983      .   S
    N22    O25       2.28531  1_556   S
    Zr7    O25       3.24700      .   S
    N22    O26       2.31498  1_565   S
    Zr5    O26       3.26741      .   S
    N27    O28       4.12991      .   S
    Zr2    O28       4.99509      .   S
    N27    O29       4.12973      .   S
    Zr6    O29       4.99480      .   S
    N30    O31       4.12994      .   S
    Zr3    O31       4.99517      .   S
    N30    O32       4.12971      .   S
    Zr7    O32       4.99479      .   S
    N33    O34       4.03458  1_565   S
    Zr2    O34       4.88476  1_455   S
    N33    O35       4.03101      .   S
    Zr6    O35       4.88046      .   S
    N36    O37       4.03493  1_565   S
    Zr3    O37       4.88515      .   S
    N36    O38       4.03089      .   S
    Zr7    O38       4.87995  1_655   S
    N39    O40       4.02983      .   S
    Zr1    O40       4.87927      .   S
    N39    O41       4.03437  1_655   S
    Zr4    O41       4.88413      .   S
    N42    O43       2.30582  1_556   S
    Zr6    O43       3.25811      .   S
    N42    O44       2.30585      .   S
    Zr3    O44       3.25816      .   S
    N42    O45       2.29126      .   S
    Zr4    O45       3.25234      .   S
    N42    O46       2.29125  1_556   S
    Zr1    O46       3.25226      .   S
    N47    O48       2.30557  1_556   S
    Zr7    O48       3.25783      .   S
    N47    O49       2.30610  1_655   S
    Zr2    O49       3.25839      .   S
    N47    O50       2.29043      .   S
    Zr5    O50       3.25154      .   S
    N47    O51       2.29220  1_656   S
    Zr0    O51       3.25334      .   S
