# CIF file generated by openbabel 2.4.90, see http://openbabel.sf.net
data_I
_chemical_name_common ''
_cell_length_a 6.82
_cell_length_b 9.31423
_cell_length_c 10.1835
_cell_angle_alpha 67.1928
_cell_angle_beta 81.436
_cell_angle_gamma 73.461
_space_group_name_H-M_alt 'P 1'
_space_group_name_Hall 'P 1'
loop_
    _symmetry_equiv_pos_as_xyz
    x,y,z
loop_
    _atom_site_label
    _atom_site_type_symbol
    _atom_site_fract_x
    _atom_site_fract_y
    _atom_site_fract_z
    _atom_site_occupancy
    Zr0     Zr   0.24482   0.45520   0.61812   1.000
    Zr1     Zr   0.75515   0.54483   0.38187   1.000
    N2      N    0.24731   0.78906   0.00021   1.000
    O3      O    0.09315   0.65731   0.18853   1.000
    O4      O    0.40916   0.68068   0.18961   1.000
    N5      N    0.75268   0.21097   0.99978   1.000
    O6      O    0.90683   0.34273   0.81146   1.000
    O7      O    0.59082   0.31935   0.81038   1.000
    O8      O    0.24857   0.64659   0.24813   1.000
    O9      O    0.75141   0.35345   0.75186   1.000
    O10     O    0.75602   0.36649   0.15975   1.000
    O11     O    0.24567   0.60181   0.84554   1.000
loop_
    _geom_bond_atom_site_label_1
    _geom_bond_atom_site_label_2
    _geom_bond_distance
    _geom_bond_site_symmetry_2
    _ccdc_geom_bond_type
    N2     O3        2.14445      .   S
    Zr1    O3        2.95156  1_655   S
    N2     O4        2.10895      .   S
    Zr1    O4        2.95938      .   S
    N5     O6        2.14443      .   S
    Zr0    O6        2.95151  1_455   S
    N5     O7        2.10897      .   S
    Zr0    O7        2.95941      .   S
    Zr0    O8        3.48780      .   S
    N2     O8        2.35322      .   S
    N5     O9        2.35322      .   S
    Zr1    O9        3.48779      .   S
    Zr1    O10       3.28313      .   S
    N5     O10       2.57144  1_556   S
    N2     O11       2.76937  1_554   S
    Zr0    O11       3.11263      .   S
