# CIF file generated by openbabel 2.4.90, see http://openbabel.sf.net
data_I
_chemical_name_common ''
_cell_length_a 6.82
_cell_length_b 9.31423
_cell_length_c 10.1835
_cell_angle_alpha 67.1928
_cell_angle_beta 81.436
_cell_angle_gamma 73.461
_space_group_name_H-M_alt 'P 1'
_space_group_name_Hall 'P 1'
loop_
    _symmetry_equiv_pos_as_xyz
    x,y,z
loop_
    _atom_site_label
    _atom_site_type_symbol
    _atom_site_fract_x
    _atom_site_fract_y
    _atom_site_fract_z
    _atom_site_occupancy
    Zr0     Zr   0.24482   0.45520   0.61812   1.000
    Zr1     Zr   0.75515   0.54483   0.38187   1.000
    N2      N    0.24731   0.78906   0.00021   1.000
    O3      O    0.21556   0.63490   0.24759   1.000
    O4      O    0.09315   0.65731   0.18853   1.000
    O5      O    0.28158   0.65828   0.24867   1.000
    O6      O    0.40916   0.68068   0.18961   1.000
    O7      O    0.24114   0.62251   0.86937   1.000
    O8      O    0.24262   0.67953   0.82345   1.000
    O9      O    0.24945   0.55259   0.84466   1.000
    N10     N    0.75268   0.21097   0.99978   1.000
    O11     O    0.90683   0.34273   0.81146   1.000
    O12     O    0.78442   0.36513   0.75240   1.000
    O13     O    0.75053   0.44745   0.15533   1.000
    O14     O    0.75885   0.37752   0.13062   1.000
    O15     O    0.59082   0.31935   0.81038   1.000
    O16     O    0.71840   0.34176   0.75132   1.000
    O17     O    0.75736   0.32050   0.17654   1.000
loop_
    _geom_bond_atom_site_label_1
    _geom_bond_atom_site_label_2
    _geom_bond_distance
    _geom_bond_site_symmetry_2
    _ccdc_geom_bond_type
    N2     O3        2.38017      .   S
    Zr0    O3        3.49523      .   S
    N2     O4        2.14445      .   S
    Zr1    O4        2.95156  1_655   S
    N2     O5        2.35898      .   S
    Zr0    O5        3.50250      .   S
    N2     O6        2.10895      .   S
    Zr1    O6        2.95938      .   S
    N2     O7        2.41656  1_554   S
    Zr0    O7        3.46784      .   S
    N2     O8        2.39611  1_554   S
    Zr0    O8        3.47831      .   S
    N2     O9        3.16864  1_554   S
    Zr0    O9        2.79404      .   S
    N10    O11       2.14443      .   S
    Zr0    O11       2.95151  1_455   S
    N10    O12       2.38016      .   S
    Zr1    O12       3.49523      .   S
    N10    O13       3.16868  1_556   S
    Zr1    O13       2.79398      .   S
    N10    O14       2.41656  1_556   S
    Zr1    O14       3.46781      .   S
    N10    O15       2.10897      .   S
    Zr0    O15       2.95941      .   S
    N10    O16       2.35898      .   S
    Zr1    O16       3.50249      .   S
    N10    O17       2.39608  1_556   S
    Zr1    O17       3.47831      .   S
