# CIF file generated by openbabel 2.4.90, see http://openbabel.sf.net
data_I
_chemical_name_common ''
_cell_length_a 5.723
_cell_length_b 10.564
_cell_length_c 16.265
_cell_angle_alpha 89.97
_cell_angle_beta 89.969
_cell_angle_gamma 87.555
_space_group_name_H-M_alt 'P 1'
_space_group_name_Hall 'P 1'
loop_
    _symmetry_equiv_pos_as_xyz
    x,y,z
loop_
    _atom_site_label
    _atom_site_type_symbol
    _atom_site_fract_x
    _atom_site_fract_y
    _atom_site_fract_z
    _atom_site_occupancy
    Zr0     Zr   0.24840   0.49494   0.56933   1.000
    Zr1     Zr   0.75141   0.00520   0.06925   1.000
    Zr2     Zr   0.75163   0.50505   0.43073   1.000
    Zr3     Zr   0.24861   0.99480   0.93080   1.000
    N4      N    0.46062   0.72867   0.27049   1.000
    O5      O    0.58467   0.83216   0.19040   1.000
    O6      O    0.35598   0.62808   0.39078   1.000
    N7      N    0.54054   0.77051   0.77085   1.000
    O8      O    0.41615   0.66732   0.69069   1.000
    O9      O    0.64460   0.87157   0.89094   1.000
    N10     N    0.53942   0.27133   0.72958   1.000
    O11     O    0.64406   0.37192   0.60928   1.000
    O12     O    0.41537   0.16784   0.80967   1.000
    N13     N    0.45949   0.22947   0.22922   1.000
    O14     O    0.35543   0.12842   0.10913   1.000
    O15     O    0.58388   0.33266   0.30938   1.000
    O16     O    0.39427   0.36214   0.65508   1.000
    O17     O    0.60502   0.13839   0.15485   1.000
    O18     O    0.60577   0.63785   0.34498   1.000
    O19     O    0.39500   0.86159   0.84522   1.000
loop_
    _geom_bond_atom_site_label_1
    _geom_bond_atom_site_label_2
    _geom_bond_distance
    _geom_bond_site_symmetry_2
    _ccdc_geom_bond_type
    N4     O5        1.86012      .   S
    Zr1    O5        2.87709  1_545   S
    N4     O6        2.31666      .   S
    Zr0    O6        3.29515      .   S
    N7     O8        1.86112      .   S
    Zr0    O8        2.87906      .   S
    N7     O9        2.31678      .   S
    Zr1    O9        3.29510  1_544   S
    N10    O11       2.31670      .   S
    Zr2    O11       3.29527      .   S
    N10    O12       1.86010      .   S
    Zr3    O12       2.87704  1_565   S
    N13    O14       2.31681      .   S
    Zr3    O14       3.29521  1_566   S
    N13    O15       1.86109      .   S
    Zr2    O15       2.87899      .   S
    Zr0    O16       2.12363      .   S
    N10    O16       1.73504      .   S
    Zr1    O17       2.12604      .   S
    N13    O17       1.73626      .   S
    Zr2    O18       2.12355      .   S
    N4     O18       1.73501      .   S
    Zr3    O19       2.12600      .   S
    N7     O19       1.73625      .   S
