# CIF file generated by openbabel 2.4.90, see http://openbabel.sf.net
data_I
_chemical_name_common ''
_cell_length_a 10.3935
_cell_length_b 17.884
_cell_length_c 21.009
_cell_angle_alpha 90.126
_cell_angle_beta 90.167
_cell_angle_gamma 90.149
_space_group_name_H-M_alt 'P 1'
_space_group_name_Hall 'P 1'
loop_
    _symmetry_equiv_pos_as_xyz
    x,y,z
loop_
    _atom_site_label
    _atom_site_type_symbol
    _atom_site_fract_x
    _atom_site_fract_y
    _atom_site_fract_z
    _atom_site_occupancy
    H0      H    0.44871   0.76011   0.64530   1.000
    H1      H    0.45517   0.75941   0.14804   1.000
    H2      H    0.74727   0.87463   0.75048   1.000
    H3      H    0.75399   0.87511   0.25207   1.000
    H4      H    0.52150   0.98447   0.60577   1.000
    H5      H    0.52904   0.98300   0.10595   1.000
    H6      H    0.03824   0.26062   0.85813   1.000
    H7      H    0.04344   0.26002   0.35683   1.000
    H8      H    0.74375   0.37517   0.74662   1.000
    H9      H    0.74749   0.37419   0.24700   1.000
    H10     H    0.96796   0.48380   0.89342   1.000
    H11     H    0.96835   0.48484   0.39391   1.000
    H12     H    0.53971   0.73650   0.39570   1.000
    H13     H    0.54187   0.73562   0.00000   1.000
    H14     H    0.24493   0.62211   0.50231   1.000
    H15     H    0.47018   0.51100   0.35831   1.000
    H16     H    0.95917   0.23432   0.10225   1.000
    H17     H    0.95214   0.23599   0.60319   1.000
    H18     H    0.25105   0.11929   0.99866   1.000
    H19     H    0.24629   0.12309   0.50150   1.000
    H20     H    0.02444   0.01218   0.64687   1.000
    H21     H    0.02849   0.01066   0.14499   1.000
    C22     C    0.50496   0.81008   0.65613   1.000
    C23     C    0.51161   0.80947   0.15831   1.000
    C24     C    0.59968   0.80913   0.70337   1.000
    C25     C    0.60647   0.80902   0.20545   1.000
    C26     C    0.67150   0.87402   0.71453   1.000
    C27     C    0.67842   0.87399   0.21602   1.000
    C28     C    0.54621   0.93532   0.63380   1.000
    C29     C    0.55350   0.93428   0.13455   1.000
    C30     C    0.64485   0.93805   0.67894   1.000
    C31     C    0.65224   0.93751   0.17964   1.000
    C32     C    0.98256   0.30956   0.84197   1.000
    C33     C    0.98818   0.31083   0.34238   1.000
    C34     C    0.88877   0.30902   0.79434   1.000
    C35     C    0.89464   0.30941   0.29456   1.000
    C36     C    0.81850   0.37415   0.78307   1.000
    C37     C    0.82241   0.37390   0.28338   1.000
    C38     C    0.94295   0.43486   0.86491   1.000
    C39     C    0.94495   0.43566   0.36537   1.000
    C40     C    0.84539   0.43800   0.81922   1.000
    C41     C    0.84751   0.43798   0.31959   1.000
    C42     C    0.48440   0.68642   0.40699   1.000
    C43     C    0.38993   0.68777   0.45402   1.000
    C44     C    0.31998   0.62255   0.46621   1.000
    C45     C    0.44518   0.56048   0.38596   1.000
    C46     C    0.35010   0.55677   0.93041   1.000
    C47     C    0.34755   0.55795   0.43136   1.000
    C48     C    0.00796   0.18698   0.59760   1.000
    C49     C    0.01295   0.18483   0.09410   1.000
    C50     C    0.10632   0.18543   0.04652   1.000
    C51     C    0.10129   0.18831   0.55001   1.000
    C52     C    0.17185   0.12345   0.53791   1.000
    C53     C    0.17650   0.12029   0.03501   1.000
    C54     C    0.04872   0.06153   0.61899   1.000
    C55     C    0.05292   0.05960   0.11662   1.000
    C56     C    0.14540   0.05905   0.57312   1.000
    C57     C    0.14993   0.05645   0.07097   1.000
    N58     N    0.47830   0.87225   0.62230   1.000
    N59     N    0.48503   0.87120   0.12391   1.000
    N60     N    0.01156   0.37318   0.88050   1.000
    N61     N    0.01329   0.37206   0.38012   1.000
    N62     N    0.51184   0.62374   0.37387   1.000
    N63     N    0.98174   0.12378   0.62567   1.000
    N64     N    0.98878   0.12248   0.12599   1.000
loop_
    _geom_bond_atom_site_label_1
    _geom_bond_atom_site_label_2
    _geom_bond_distance
    _geom_bond_site_symmetry_2
    _ccdc_geom_bond_type
    C53    C50       1.39718      .   S
    C53    C57       1.39778      .   S
    C53    H18       1.08952  1_554   S
    C50    C49       1.39527      .   S
    C57    C55       1.39484      .   S
    C49    H16       1.06187  1_455   S
    C49    N64       1.32582  1_455   S
    H5     C29       1.08984      .   S
    C55    N64       1.32338  1_455   S
    C55    H21       1.08982      .   S
    N59    C29       1.35017      .   S
    N59    C23       1.34948      .   S
    C29    C31       1.39549      .   S
    H1     C23       1.08995      .   S
    C23    C25       1.39544      .   S
    C31    C27       1.39741      .   S
    C25    C27       1.39721      .   S
    C27    H3        1.08962      .   S
    H9     C37       1.08968      .   S
    C37    C35       1.39764      .   S
    C37    C41       1.39780      .   S
    C35    C33       1.39621      .   S
    C41    C39       1.39541      .   S
    C33    H7        1.11832  1_655   S
    C33    N61       1.37456  1_655   S
    H15    C45       1.08986      .   S
    C39    N61       1.37799  1_655   S
    C39    H11       1.08991      .   S
    N62    C45       1.35000      .   S
    N62    C42       1.34966      .   S
    C45    C47       1.39542      .   S
    H12    C42       1.08996      .   S
    C42    C43       1.39511      .   S
    C47    C44       1.39714      .   S
    C43    C44       1.39732      .   S
    C44    H14       1.08957      .   S
    H19    C52       1.08957      .   S
    C52    C51       1.39723      .   S
    C52    C56       1.39716      .   S
    C51    C48       1.39521      .   S
    C56    C54       1.39502      .   S
    C48    H17       1.05896  1_455   S
    C48    N63       1.30445  1_455   S
    H4     C28       1.08987      .   S
    C54    N63       1.32203  1_455   S
    C54    H20       1.08984      .   S
    N58    C28       1.34996      .   S
    N58    C22       1.34987      .   S
    C28    C30       1.39509      .   S
    H0     C22       1.08994      .   S
    C22    C24       1.39600      .   S
    C30    C26       1.39698      .   S
    C24    C26       1.39727      .   S
    C26    H2        1.08958      .   S
    H8     C36       1.08957      .   S
    C36    C34       1.39663      .   S
    C36    C40       1.39712      .   S
    C34    C32       1.39507      .   S
    C40    C38       1.39557      .   S
    C32    H6        1.10413  1_655   S
    C32    N60       1.42590  1_655   S
    C38    N60       1.35537  1_655   S
    C38    H10       1.08988      .   S
