# CIF file generated by openbabel 2.4.90, see http://openbabel.sf.net
data_I
_chemical_name_common ''
_cell_length_a 10.3935
_cell_length_b 17.884
_cell_length_c 21.009
_cell_angle_alpha 90.126
_cell_angle_beta 90.167
_cell_angle_gamma 90.149
_space_group_name_H-M_alt 'P 1'
_space_group_name_Hall 'P 1'
loop_
    _symmetry_equiv_pos_as_xyz
    x,y,z
loop_
    _atom_site_label
    _atom_site_type_symbol
    _atom_site_fract_x
    _atom_site_fract_y
    _atom_site_fract_z
    _atom_site_occupancy
    Mc0     Mc   0.47897   0.59490   0.87981   1.000
    Mc1     Mc   0.32257   0.64223   0.98971   1.000
