# CIF file generated by openbabel 2.4.90, see http://openbabel.sf.net
data_I
_chemical_name_common ''
_cell_length_a 10.3935
_cell_length_b 17.884
_cell_length_c 21.009
_cell_angle_alpha 90.126
_cell_angle_beta 90.167
_cell_angle_gamma 90.149
_space_group_name_H-M_alt 'P 1'
_space_group_name_Hall 'P 1'
loop_
    _symmetry_equiv_pos_as_xyz
    x,y,z
loop_
    _atom_site_label
    _atom_site_type_symbol
    _atom_site_fract_x
    _atom_site_fract_y
    _atom_site_fract_z
    _atom_site_occupancy
    H0      H    0.24979   0.61987   0.00283   1.000
    H1      H    0.47021   0.51089   0.85586   1.000
    C2      C    0.48678   0.68542   0.90667   1.000
    C3      C    0.39402   0.68603   0.00000   1.000
    C4      C    0.32391   0.62079   0.96629   1.000
    C5      C    0.44626   0.55994   0.88430   1.000
    N6      N    0.51263   0.62335   0.87240   1.000
loop_
    _geom_bond_atom_site_label_1
    _geom_bond_atom_site_label_2
    _geom_bond_distance
    _geom_bond_site_symmetry_2
    _ccdc_geom_bond_type
    C3     C4        1.54366  1_554   S
    H0     C4        1.08934  1_554   S
    H1     C5        1.08993      .   S
    N6     C5        1.35007      .   S
    N6     C2        1.34976      .   S
