# CIF file generated by openbabel 2.4.90, see http://openbabel.sf.net
data_I
_chemical_name_common ''
_cell_length_a 10.3935
_cell_length_b 17.884
_cell_length_c 21.009
_cell_angle_alpha 90.126
_cell_angle_beta 90.167
_cell_angle_gamma 90.149
_space_group_name_H-M_alt 'P 1'
_space_group_name_Hall 'P 1'
loop_
    _symmetry_equiv_pos_as_xyz
    x,y,z
loop_
    _atom_site_label
    _atom_site_type_symbol
    _atom_site_fract_x
    _atom_site_fract_y
    _atom_site_fract_z
    _atom_site_occupancy
    Zn0     Zn   0.85018   0.12473   0.19467   1.000
    Zn1     Zn   0.64961   0.62505   0.80261   1.000
    Zn2     Zn   0.65022   0.62489   0.30518   1.000
    Zn3     Zn   0.15028   0.37163   0.94972   1.000
    Zn4     Zn   0.14999   0.37168   0.45022   1.000
    Zn5     Zn   0.33922   0.87198   0.55289   1.000
    Zn6     Zn   0.34491   0.86907   0.05532   1.000
    Zn7     Zn   0.84371   0.12467   0.69455   1.000
    C8      C    0.72127   0.00824   0.68752   1.000
    C9      C    0.72881   0.00778   0.18775   1.000
    C10     C    0.62243   0.73963   0.74112   1.000
    C11     C    0.62828   0.73991   0.24381   1.000
    C12     C    0.77036   0.50838   0.81016   1.000
    C13     C    0.77071   0.50786   0.31105   1.000
    C14     C    0.86637   0.23971   0.75607   1.000
    C15     C    0.87400   0.23960   0.25649   1.000
    C16     C    0.27570   0.48612   0.93986   1.000
    C17     C    0.27346   0.48717   0.44097   1.000
    C18     C    0.36648   0.75817   0.49054   1.000
    C19     C    0.37202   0.75568   0.00000   1.000
    C20     C    0.21919   0.98846   0.56310   1.000
    C21     C    0.22465   0.98592   0.06231   1.000
    C22     C    0.12835   0.25519   0.00904   1.000
    C23     C    0.12291   0.25830   0.51284   1.000
    O24     O    0.67820   0.06923   0.66383   1.000
    O25     O    0.68828   0.06798   0.16157   1.000
    O26     O    0.82816   0.00605   0.71705   1.000
    O27     O    0.83310   0.00645   0.21952   1.000
    O28     O    0.57234   0.67807   0.72217   1.000
    O29     O    0.57777   0.67833   0.22487   1.000
    O30     O    0.68988   0.74303   0.79179   1.000
    O31     O    0.69455   0.74346   0.29474   1.000
    O32     O    0.81139   0.56891   0.83600   1.000
    O33     O    0.81228   0.56873   0.33627   1.000
    O34     O    0.66657   0.50675   0.77797   1.000
    O35     O    0.66545   0.50572   0.28027   1.000
    O36     O    0.91645   0.17828   0.77503   1.000
    O37     O    0.92679   0.17890   0.27509   1.000
    O38     O    0.80011   0.24302   0.70514   1.000
    O39     O    0.80580   0.24176   0.20600   1.000
    O40     O    0.31569   0.42562   0.91426   1.000
    O41     O    0.31227   0.42727   0.41393   1.000
    O42     O    0.17235   0.48775   0.97241   1.000
    O43     O    0.17197   0.48787   0.47489   1.000
    O44     O    0.42054   0.81870   0.47252   1.000
    O45     O    0.42642   0.81635   0.00000   1.000
    O46     O    0.29451   0.75631   0.53962   1.000
    O47     O    0.30067   0.75320   0.04167   1.000
    O48     O    0.17804   0.92801   0.58852   1.000
    O49     O    0.18350   0.92578   0.08844   1.000
    O50     O    0.32215   0.98978   0.53041   1.000
    O51     O    0.32832   0.98703   0.03035   1.000
    O52     O    0.07779   0.31622   0.02876   1.000
    O53     O    0.06778   0.31858   0.53045   1.000
    O54     O    0.19464   0.25295   0.95829   1.000
    O55     O    0.19465   0.25636   0.46365   1.000
    Ts56    Ts   0.89638   0.12398   0.17178   1.000
    Ts57    Ts   0.60395   0.62448   0.82587   1.000
    Ts58    Ts   0.60409   0.62450   0.32808   1.000
    Ts59    Ts   0.10404   0.37214   0.92664   1.000
    Ts60    Ts   0.10442   0.37181   0.42685   1.000
    Ts61    Ts   0.38558   0.87207   0.57603   1.000
    Ts62    Ts   0.39161   0.86978   0.07818   1.000
    Ts63    Ts   0.88972   0.12438   0.67159   1.000
    Og64    Og   0.69580   0.98485   0.68466   1.000
    Og65    Og   0.70328   0.98435   0.18505   1.000
    Og66    Og   0.61485   0.76279   0.72853   1.000
    Og67    Og   0.62101   0.76294   0.23102   1.000
    Og68    Og   0.79537   0.48492   0.81318   1.000
    Og69    Og   0.79631   0.48457   0.31390   1.000
    Og70    Og   0.87383   0.26281   0.76883   1.000
    Og71    Og   0.88088   0.26287   0.26918   1.000
    Og72    Og   0.30050   0.50967   0.93671   1.000
    Og73    Og   0.29816   0.51076   0.43777   1.000
    Og74    Og   0.37430   0.73470   0.47837   1.000
    Og75    Og   0.37935   0.73247   0.00000   1.000
    Og76    Og   0.19459   0.01199   0.56644   1.000
    Og77    Og   0.19974   0.00943   0.06520   1.000
    Og78    Og   0.12101   0.23194   0.02153   1.000
    Og79    Og   0.11570   0.23497   0.52523   1.000
    Ts80    Ts   0.33178   0.73081   0.02778   1.000
loop_
    _geom_bond_atom_site_label_1
    _geom_bond_atom_site_label_2
    _geom_bond_distance
    _geom_bond_site_symmetry_2
    _ccdc_geom_bond_type
    C19    O45       1.22218      .   S
    C19    O47       1.14982      .   S
    O45    Zn6       1.72109      .   S
    C22    O52       1.28111      .   S
    C22    O54       1.27178  1_554   S
    O52    Zn3       2.07787  1_554   S
    O51    Zn6       2.18213      .   S
    O51    C21       1.27144      .   S
    O47    Zn6       2.13981      .   S
    Zn6    O49       2.08315      .   S
    C21    O49       1.28167      .   S
    O25    C9        1.28172      .   S
    O25    Zn0       2.07998      .   S
    C9     O27       1.27157      .   S
    Zn0    O39       2.15704      .   S
    Zn0    O27       2.18673      .   S
    Zn0    O37       2.09942      .   S
    O39    C15       1.27477      .   S
    O29    C11       1.28083      .   S
    O29    Zn2       2.08103      .   S
    C11    O31       1.27225      .   S
    C15    O37       1.27893      .   S
    O35    Zn2       2.19951      .   S
    O35    C13       1.26978      .   S
    O31    Zn2       2.18051      .   S
    Zn2    O33       2.06825      .   S
    C13    O33       1.28297      .   S
    O41    C17       1.27827      .   S
    O41    Zn4       2.10159      .   S
    C17    O43       1.27466      .   S
    Zn4    O55       2.13444      .   S
    Zn4    O43       2.15179      .   S
    Zn4    O53       2.11759      .   S
    O55    C23       1.27653      .   S
    O44    C18       1.27710      .   S
    O44    Zn5       2.11623      .   S
    C18    O46       1.27617      .   S
    C23    O53       1.27673      .   S
    O50    Zn5       2.16775      .   S
    O50    C20       1.27343      .   S
    O46    Zn5       2.13642      .   S
    Zn5    O48       2.09367      .   S
    C20    O48       1.27987      .   S
    O24    C8        1.28113      .   S
    O24    Zn7       2.08347      .   S
    C8     O26       1.27163      .   S
    Zn7    O38       2.17663      .   S
    Zn7    O26       2.18022      .   S
    Zn7    O36       2.08109      .   S
    O38    C14       1.27239      .   S
    O28    C10       1.27886      .   S
    O28    Zn1       2.09836      .   S
    C10    O30       1.27431      .   S
    C14    O36       1.28070      .   S
    O34    Zn1       2.18455      .   S
    O34    C12       1.27182      .   S
    O30    Zn1       2.16269      .   S
    Zn1    O32       2.08145      .   S
    C12    O32       1.28140      .   S
    O40    C16       1.27808      .   S
    O40    Zn3       2.10827      .   S
    C16    O42       1.27551      .   S
    Zn3    O54       2.18074      .   S
    Zn3    O42       2.14146      .   S
    Zn0    Ts56      0.68080      .   S
    Zn1    Ts57      0.68228      .   S
    Zn2    Ts58      0.68020      .   S
    Zn3    Ts59      0.68169      .   S
    Zn4    Ts60      0.68113      .   S
    Zn5    Ts61      0.68344      .   S
    Zn6    Ts62      0.68202      .   S
    Zn7    Ts63      0.68023      .   S
    C8     Og64      0.49801  1_545   S
    C9     Og65      0.49829  1_545   S
    C10    Og66      0.49827      .   S
    C11    Og67      0.49814      .   S
    C12    Og68      0.49822      .   S
    C13    Og69      0.49847      .   S
    C14    Og70      0.49779      .   S
    C15    Og71      0.49862      .   S
    C16    Og72      0.49784      .   S
    C17    Og73      0.49813      .   S
    C18    Og74      0.49794      .   S
    C19    Og75      0.42236      .   S
    C20    Og76      0.49790  1_565   S
    C21    Og77      0.49802  1_565   S
    C22    Og78      0.49810      .   S
    C23    Og79      0.49790      .   S
    O47    Ts80      0.59230      .   S
