# CIF file generated by openbabel 2.4.90, see http://openbabel.sf.net
data_I
_chemical_name_common ''
_cell_length_a 10.3935
_cell_length_b 17.884
_cell_length_c 21.009
_cell_angle_alpha 90.126
_cell_angle_beta 90.167
_cell_angle_gamma 90.149
_space_group_name_H-M_alt 'P 1'
_space_group_name_Hall 'P 1'
loop_
    _symmetry_equiv_pos_as_xyz
    x,y,z
loop_
    _atom_site_label
    _atom_site_type_symbol
    _atom_site_fract_x
    _atom_site_fract_y
    _atom_site_fract_z
    _atom_site_occupancy
    C0      C    0.72127   0.00824   0.68752   1.000
    C1      C    0.72881   0.00778   0.18775   1.000
    C2      C    0.62243   0.73963   0.74112   1.000
    C3      C    0.62828   0.73991   0.24381   1.000
    C4      C    0.77036   0.50838   0.81016   1.000
    C5      C    0.77071   0.50786   0.31105   1.000
    C6      C    0.86637   0.23971   0.75607   1.000
    C7      C    0.87400   0.23960   0.25649   1.000
    C8      C    0.27570   0.48612   0.93986   1.000
    C9      C    0.27346   0.48717   0.44097   1.000
    C10     C    0.36648   0.75817   0.49054   1.000
    C11     C    0.37202   0.75568   0.00000   1.000
    C12     C    0.21919   0.98846   0.56310   1.000
    C13     C    0.22465   0.98592   0.06231   1.000
    C14     C    0.12835   0.25519   0.00904   1.000
    C15     C    0.12291   0.25830   0.51284   1.000
