# CIF file generated by openbabel 2.4.90, see http://openbabel.sf.net
data_I
_chemical_name_common ''
_cell_length_a 10.3935
_cell_length_b 17.884
_cell_length_c 21.009
_cell_angle_alpha 90.126
_cell_angle_beta 90.167
_cell_angle_gamma 90.149
_space_group_name_H-M_alt 'P 1'
_space_group_name_Hall 'P 1'
loop_
    _symmetry_equiv_pos_as_xyz
    x,y,z
loop_
    _atom_site_label
    _atom_site_type_symbol
    _atom_site_fract_x
    _atom_site_fract_y
    _atom_site_fract_z
    _atom_site_occupancy
    N0      N    0.57366   0.87312   0.66785   1.000
    N1      N    0.91892   0.37321   0.33146   1.000
    N2      N    0.41708   0.62317   0.41942   1.000
    N3      N    0.35010   0.55677   0.93041   1.000
    N4      N    0.91552   0.37315   0.83135   1.000
    N5      N    0.07554   0.12382   0.58387   1.000
    N6      N    0.08068   0.12148   0.08168   1.000
    N7      N    0.58061   0.87255   0.16933   1.000
    Zr8     Zr   0.30573   0.87306   0.53394   1.000
    O9      O    0.21732   0.97342   0.55497   1.000
    O10     O    0.35169   0.77306   0.48990   1.000
    O11     O    0.39847   0.87284   0.58083   1.000
    Zr12    Zr   0.18472   0.37246   0.46956   1.000
    O13     O    0.09250   0.37250   0.42144   1.000
    O14     O    0.13927   0.27301   0.51361   1.000
    O15     O    0.27426   0.47266   0.44868   1.000
    Zr16    Zr   0.18783   0.37079   0.96748   1.000
    O17     O    0.25966   0.45495   0.95012   1.000
    O18     O    0.14342   0.27084   0.01110   1.000
    O19     O    0.09303   0.37178   0.92035   1.000
    Zr20    Zr   0.31150   0.87043   0.03973   1.000
    O21     O    0.22274   0.97088   0.05694   1.000
    O22     O    0.40464   0.87089   0.08460   1.000
    Zr23    Zr   0.81528   0.12389   0.21444   1.000
    O24     O    0.85845   0.22387   0.25897   1.000
    O25     O    0.90768   0.12322   0.16772   1.000
    O26     O    0.72542   0.02324   0.19548   1.000
    Zr27    Zr   0.68323   0.62426   0.78312   1.000
    O28     O    0.60663   0.61690   0.82089   1.000
    O29     O    0.63779   0.72400   0.73908   1.000
    O30     O    0.77246   0.52372   0.80307   1.000
    Zr31    Zr   0.68561   0.62413   0.28517   1.000
    O32     O    0.77481   0.52360   0.30428   1.000
    O33     O    0.59233   0.62393   0.33232   1.000
    O34     O    0.64230   0.72382   0.24107   1.000
    Zr35    Zr   0.80775   0.12417   0.71417   1.000
    O36     O    0.71806   0.02365   0.69485   1.000
    O37     O    0.90094   0.12410   0.66808   1.000
    O38     O    0.85215   0.22396   0.75873   1.000
    O39     O    0.32769   0.77583   0.01989   1.000
loop_
    _geom_bond_atom_site_label_1
    _geom_bond_atom_site_label_2
    _geom_bond_distance
    _geom_bond_site_symmetry_2
    _ccdc_geom_bond_type
    Zr8    O9        2.06605      .   S
    N5     O9        3.12944  1_545   S
    Zr8    O10       2.06938      .   S
    N2     O10       3.13665      .   S
    Zr8    O11       1.37623      .   S
    N0     O11       2.57643      .   S
    Zr12   O13       1.39115      .   S
    N1     O13       2.60940  1_655   S
    Zr12   O14       2.06107      .   S
    N5     O14       3.12267      .   S
    Zr12   O15       2.06565      .   S
    N2     O15       3.13342      .   S
    Zr16   O17       1.71870      .   S
    N3     O17       2.08992      .   S
    Zr16   O18       2.06234  1_556   S
    N6     O18       3.12610      .   S
    Zr16   O19       1.39492      .   S
    N4     O19       2.62311  1_655   S
    Zr20   O21       2.05348      .   S
    N6     O21       3.11822  1_545   S
    Zr20   O22       1.34930      .   S
    N7     O22       2.54849      .   S
    Zr23   O24       2.06392      .   S
    N1     O24       3.13295      .   S
    Zr23   O25       1.37524      .   S
    N6     O25       2.55359  1_455   S
    Zr23   O26       2.06315      .   S
    N7     O26       3.13006  1_565   S
    Zr27   O28       1.13324      .   S
    N3     O28       3.68674      .   S
    Zr27   O29       2.06639      .   S
    N0     O29       3.13312      .   S
    Zr27   O30       2.06857      .   S
    N4     O30       3.13642      .   S
    Zr31   O32       2.06467      .   S
    N1     O32       3.13458      .   S
    Zr31   O33       1.38807      .   S
    N2     O33       2.58564      .   S
    Zr31   O34       2.06118      .   S
    N7     O34       3.12726      .   S
    Zr35   O36       2.06188      .   S
    N0     O36       3.12876  1_565   S
    Zr35   O37       1.37156      .   S
    N5     O37       2.53800  1_455   S
    Zr35   O38       2.06402      .   S
    N4     O38       3.13810      .   S
    Zr20   O39       1.75013      .   S
    N3     O39       4.34879  1_556   S
