# CIF file generated by openbabel 2.4.90, see http://openbabel.sf.net
data_I
_chemical_name_common ''
_cell_length_a 10.3935
_cell_length_b 17.884
_cell_length_c 21.009
_cell_angle_alpha 90.126
_cell_angle_beta 90.167
_cell_angle_gamma 90.149
_space_group_name_H-M_alt 'P 1'
_space_group_name_Hall 'P 1'
loop_
    _symmetry_equiv_pos_as_xyz
    x,y,z
loop_
    _atom_site_label
    _atom_site_type_symbol
    _atom_site_fract_x
    _atom_site_fract_y
    _atom_site_fract_z
    _atom_site_occupancy
    C0      C    0.84371   0.12467   0.69455   1.000
    C1      C    0.85018   0.12473   0.19467   1.000
    C2      C    0.64961   0.62505   0.80261   1.000
    C3      C    0.65022   0.62489   0.30518   1.000
    C4      C    0.15028   0.37163   0.94972   1.000
    C5      C    0.14999   0.37168   0.45022   1.000
    C6      C    0.33922   0.87198   0.55289   1.000
    C7      C    0.34491   0.86907   0.05532   1.000
    C8      C    0.44871   0.76011   0.64530   1.000
    C9      C    0.45517   0.75941   0.14804   1.000
    C10     C    0.74727   0.87463   0.75048   1.000
    C11     C    0.75399   0.87511   0.25207   1.000
    C12     C    0.52150   0.98447   0.60577   1.000
    C13     C    0.52904   0.98300   0.10595   1.000
    C14     C    0.03824   0.26062   0.85813   1.000
    C15     C    0.04344   0.26002   0.35683   1.000
    C16     C    0.74375   0.37517   0.74662   1.000
    C17     C    0.74749   0.37419   0.24700   1.000
    C18     C    0.96796   0.48380   0.89342   1.000
    C19     C    0.96835   0.48484   0.39391   1.000
    C20     C    0.53971   0.73650   0.39570   1.000
    C21     C    0.54187   0.73562   0.00000   1.000
    C22     C    0.24493   0.62211   0.50231   1.000
    C23     C    0.24979   0.61987   0.00283   1.000
    C24     C    0.47021   0.51089   0.85586   1.000
    C25     C    0.47018   0.51100   0.35831   1.000
    C26     C    0.95917   0.23432   0.10225   1.000
    C27     C    0.95214   0.23599   0.60319   1.000
    C28     C    0.25105   0.11929   0.99866   1.000
    C29     C    0.24629   0.12309   0.50150   1.000
    C30     C    0.02444   0.01218   0.64687   1.000
    C31     C    0.02849   0.01066   0.14499   1.000
    C32     C    0.50496   0.81008   0.65613   1.000
    C33     C    0.51161   0.80947   0.15831   1.000
    C34     C    0.59968   0.80913   0.70337   1.000
    C35     C    0.60647   0.80902   0.20545   1.000
    C36     C    0.67150   0.87402   0.71453   1.000
    C37     C    0.67842   0.87399   0.21602   1.000
    C38     C    0.54621   0.93532   0.63380   1.000
    C39     C    0.55350   0.93428   0.13455   1.000
    C40     C    0.72127   0.00824   0.68752   1.000
    C41     C    0.72881   0.00778   0.18775   1.000
    C42     C    0.64485   0.93805   0.67894   1.000
    C43     C    0.65224   0.93751   0.17964   1.000
    C44     C    0.62243   0.73963   0.74112   1.000
    C45     C    0.62828   0.73991   0.24381   1.000
    C46     C    0.98256   0.30956   0.84197   1.000
    C47     C    0.98818   0.31083   0.34238   1.000
    C48     C    0.88877   0.30902   0.79434   1.000
    C49     C    0.89464   0.30941   0.29456   1.000
    C50     C    0.81850   0.37415   0.78307   1.000
    C51     C    0.82241   0.37390   0.28338   1.000
    C52     C    0.94295   0.43486   0.86491   1.000
    C53     C    0.94495   0.43566   0.36537   1.000
    C54     C    0.77036   0.50838   0.81016   1.000
    C55     C    0.77071   0.50786   0.31105   1.000
    C56     C    0.84539   0.43800   0.81922   1.000
    C57     C    0.84751   0.43798   0.31959   1.000
    C58     C    0.86637   0.23971   0.75607   1.000
    C59     C    0.87400   0.23960   0.25649   1.000
    C60     C    0.48678   0.68542   0.90667   1.000
    C61     C    0.48440   0.68642   0.40699   1.000
    C62     C    0.38993   0.68777   0.45402   1.000
    C63     C    0.39402   0.68603   0.00000   1.000
    C64     C    0.32391   0.62079   0.96629   1.000
    C65     C    0.31998   0.62255   0.46621   1.000
    C66     C    0.44626   0.55994   0.88430   1.000
    C67     C    0.44518   0.56048   0.38596   1.000
    C68     C    0.27570   0.48612   0.93986   1.000
    C69     C    0.27346   0.48717   0.44097   1.000
    C70     C    0.35010   0.55677   0.93041   1.000
    C71     C    0.34755   0.55795   0.43136   1.000
    C72     C    0.36648   0.75817   0.49054   1.000
    C73     C    0.37202   0.75568   0.00000   1.000
    C74     C    0.00796   0.18698   0.59760   1.000
    C75     C    0.01295   0.18483   0.09410   1.000
    C76     C    0.10632   0.18543   0.04652   1.000
    C77     C    0.10129   0.18831   0.55001   1.000
    C78     C    0.17185   0.12345   0.53791   1.000
    C79     C    0.17650   0.12029   0.03501   1.000
    C80     C    0.04872   0.06153   0.61899   1.000
    C81     C    0.05292   0.05960   0.11662   1.000
    C82     C    0.21919   0.98846   0.56310   1.000
    C83     C    0.22465   0.98592   0.06231   1.000
    C84     C    0.14540   0.05905   0.57312   1.000
    C85     C    0.14993   0.05645   0.07097   1.000
    C86     C    0.12835   0.25519   0.00904   1.000
    C87     C    0.12291   0.25830   0.51284   1.000
    C88     C    0.47830   0.87225   0.62230   1.000
    C89     C    0.48503   0.87120   0.12391   1.000
    C90     C    0.01156   0.37318   0.88050   1.000
    C91     C    0.01329   0.37206   0.38012   1.000
    C92     C    0.51263   0.62335   0.87240   1.000
    C93     C    0.51184   0.62374   0.37387   1.000
    C94     C    0.98174   0.12378   0.62567   1.000
    C95     C    0.98878   0.12248   0.12599   1.000
    C96     C    0.67820   0.06923   0.66383   1.000
    C97     C    0.68828   0.06798   0.16157   1.000
    C98     C    0.82816   0.00605   0.71705   1.000
    C99     C    0.83310   0.00645   0.21952   1.000
    C100    C    0.57234   0.67807   0.72217   1.000
    C101    C    0.57777   0.67833   0.22487   1.000
    C102    C    0.68988   0.74303   0.79179   1.000
    C103    C    0.69455   0.74346   0.29474   1.000
    C104    C    0.81139   0.56891   0.83600   1.000
    C105    C    0.81228   0.56873   0.33627   1.000
    C106    C    0.66657   0.50675   0.77797   1.000
    C107    C    0.66545   0.50572   0.28027   1.000
    C108    C    0.91645   0.17828   0.77503   1.000
    C109    C    0.92679   0.17890   0.27509   1.000
    C110    C    0.80011   0.24302   0.70514   1.000
    C111    C    0.80580   0.24176   0.20600   1.000
    C112    C    0.31569   0.42562   0.91426   1.000
    C113    C    0.31227   0.42727   0.41393   1.000
    C114    C    0.17235   0.48775   0.97241   1.000
    C115    C    0.17197   0.48787   0.47489   1.000
    C116    C    0.42054   0.81870   0.47252   1.000
    C117    C    0.42642   0.81635   0.00000   1.000
    C118    C    0.29451   0.75631   0.53962   1.000
    C119    C    0.30067   0.75320   0.04167   1.000
    C120    C    0.17804   0.92801   0.58852   1.000
    C121    C    0.18350   0.92578   0.08844   1.000
    C122    C    0.32215   0.98978   0.53041   1.000
    C123    C    0.32832   0.98703   0.03035   1.000
    C124    C    0.07779   0.31622   0.02876   1.000
    C125    C    0.06778   0.31858   0.53045   1.000
    C126    C    0.19464   0.25295   0.95829   1.000
    C127    C    0.19465   0.25636   0.46365   1.000
    O128    O    0.38302   0.72086   0.00000   1.000
    O129    O    0.35896   0.65341   0.98314   1.000
    O130    O    0.39922   0.78602   0.00000   1.000
    O131    O    0.33634   0.75444   0.02083   1.000
    O132    O    0.38566   0.84271   0.02766   1.000
    O133    O    0.28685   0.62033   0.98456   1.000
    O134    O    0.10307   0.28571   0.01890   1.000
    O135    O    0.11733   0.22031   0.02778   1.000
    O136    O    0.16149   0.25407   0.98366   1.000
    O137    O    0.11404   0.34392   0.98924   1.000
    O138    O    0.33661   0.92805   0.04283   1.000
    O139    O    0.27649   0.98647   0.04633   1.000
    O140    O    0.14141   0.15286   0.04076   1.000
    O141    O    0.16322   0.08837   0.05299   1.000
    O142    O    0.21378   0.11979   0.01683   1.000
    O143    O    0.32279   0.81114   0.04849   1.000
    O144    O    0.05963   0.18513   0.07031   1.000
    O145    O    0.26420   0.89742   0.07188   1.000
    O146    O    0.41497   0.87013   0.08962   1.000
    O147    O    0.18729   0.02119   0.06664   1.000
    O148    O    0.20408   0.95585   0.07537   1.000
    O149    O    0.10143   0.05803   0.09379   1.000
    O150    O    0.98606   0.20957   0.09818   1.000
    O151    O    0.00087   0.15366   0.11005   1.000
    O152    O    0.54127   0.95864   0.12025   1.000
    O153    O    0.02085   0.09104   0.12131   1.000
    O154    O    0.04070   0.03513   0.13080   1.000
    O155    O    0.51926   0.90274   0.12923   1.000
    O156    O    0.49832   0.84034   0.14111   1.000
    O157    O    0.91948   0.12361   0.16033   1.000
    O158    O    0.60287   0.93590   0.15710   1.000
    O159    O    0.48339   0.78444   0.15317   1.000
    O160    O    0.55904   0.80924   0.18188   1.000
    O161    O    0.70854   0.03788   0.17466   1.000
    O162    O    0.76923   0.09636   0.17812   1.000
    O163    O    0.69052   0.97264   0.18370   1.000
    O164    O    0.66533   0.90575   0.19783   1.000
    O165    O    0.78095   0.00712   0.20364   1.000
    O166    O    0.82799   0.18324   0.20034   1.000
    O167    O    0.84164   0.06559   0.20710   1.000
    O168    O    0.88848   0.15182   0.23488   1.000
    O169    O    0.64244   0.84150   0.21073   1.000
    O170    O    0.61737   0.77446   0.22463   1.000
    O171    O    0.83990   0.24068   0.23124   1.000
    O172    O    0.71620   0.87455   0.23404   1.000
    O173    O    0.60302   0.70912   0.23434   1.000
    O174    O    0.61399   0.65161   0.26502   1.000
    O175    O    0.66142   0.74168   0.26928   1.000
    O176    O    0.78495   0.37404   0.26519   1.000
    O177    O    0.90040   0.20925   0.26579   1.000
    O178    O    0.88432   0.27450   0.27552   1.000
    O179    O    0.65783   0.56530   0.29272   1.000
    O180    O    0.71808   0.50679   0.29566   1.000
    O181    O    0.85852   0.34165   0.28897   1.000
    O182    O    0.83496   0.40594   0.30149   1.000
    O183    O    0.94141   0.31012   0.31847   1.000
    O184    O    0.67239   0.68417   0.29996   1.000
    O185    O    0.73125   0.59681   0.32072   1.000
    O186    O    0.58103   0.62431   0.33953   1.000
    O187    O    0.80911   0.47292   0.31532   1.000
    O188    O    0.79149   0.53829   0.32366   1.000
    O189    O    0.89623   0.43682   0.34248   1.000
    O190    O    0.01581   0.28542   0.34961   1.000
    O191    O    0.00073   0.34144   0.36125   1.000
    O192    O    0.45768   0.53574   0.37214   1.000
    O193    O    0.97912   0.40386   0.37275   1.000
    O194    O    0.95665   0.46025   0.37964   1.000
    O195    O    0.47851   0.59211   0.37992   1.000
    O196    O    0.49812   0.65508   0.39043   1.000
    O197    O    0.08164   0.37187   0.41517   1.000
    O198    O    0.39636   0.55922   0.40866   1.000
    O199    O    0.51205   0.71146   0.40135   1.000
    O200    O    0.43716   0.68710   0.43051   1.000
    O201    O    0.29287   0.45722   0.42745   1.000
    O202    O    0.23113   0.39948   0.43207   1.000
    O203    O    0.31050   0.52256   0.43617   1.000
    O204    O    0.33376   0.59025   0.44879   1.000
    O205    O    0.22272   0.48752   0.45793   1.000
    O206    O    0.17232   0.31402   0.45694   1.000
    O207    O    0.16098   0.42978   0.46255   1.000
    O208    O    0.10889   0.34513   0.49034   1.000
    O209    O    0.35496   0.65516   0.46011   1.000
    O210    O    0.37821   0.72297   0.47228   1.000
    O211    O    0.15878   0.25733   0.48825   1.000
    O212    O    0.28246   0.62233   0.48426   1.000
    O213    O    0.39351   0.78843   0.48153   1.000
    O214    O    0.37988   0.84534   0.51271   1.000
    O215    O    0.33050   0.75724   0.51508   1.000
    O216    O    0.20907   0.12327   0.51971   1.000
    O217    O    0.09534   0.28844   0.52165   1.000
    O218    O    0.11210   0.22331   0.53143   1.000
    O219    O    0.33068   0.93088   0.54165   1.000
    O220    O    0.27067   0.98912   0.54676   1.000
    O221    O    0.13657   0.15588   0.54396   1.000
    O222    O    0.15863   0.09125   0.55552   1.000
    O223    O    0.31686   0.81414   0.54626   1.000
    O224    O    0.05462   0.18764   0.57381   1.000
    O225    O    0.25863   0.89999   0.57070   1.000
    O226    O    0.40876   0.87212   0.58760   1.000
    O227    O    0.18229   0.02376   0.56811   1.000
    O228    O    0.19861   0.95824   0.57581   1.000
    O229    O    0.09706   0.06029   0.59605   1.000
    O230    O    0.98005   0.21148   0.60039   1.000
    O231    O    0.99485   0.15538   0.61163   1.000
    O232    O    0.53386   0.95989   0.61979   1.000
    O233    O    0.01523   0.09265   0.62233   1.000
    O234    O    0.03658   0.03685   0.63293   1.000
    O235    O    0.51226   0.90379   0.62805   1.000
    O236    O    0.49163   0.84117   0.63922   1.000
    O237    O    0.91272   0.12423   0.66011   1.000
    O238    O    0.59553   0.93669   0.65637   1.000
    O239    O    0.47683   0.78509   0.65072   1.000
    O240    O    0.55232   0.80960   0.67975   1.000
    O241    O    0.69974   0.03874   0.67568   1.000
    O242    O    0.76096   0.09695   0.67919   1.000
    O243    O    0.68306   0.97315   0.68323   1.000
    O244    O    0.65817   0.90604   0.69673   1.000
    O245    O    0.77472   0.00715   0.70228   1.000
    O246    O    0.82191   0.18385   0.69984   1.000
    O247    O    0.83594   0.06536   0.70580   1.000
    O248    O    0.88008   0.15148   0.73479   1.000
    O249    O    0.63559   0.84157   0.70895   1.000
    O250    O    0.61106   0.77438   0.72224   1.000
    O251    O    0.83324   0.24136   0.73061   1.000
    O252    O    0.70938   0.87433   0.73251   1.000
    O253    O    0.59739   0.70885   0.73164   1.000
    O254    O    0.61097   0.65156   0.76239   1.000
    O255    O    0.65616   0.74133   0.76645   1.000
    O256    O    0.78112   0.37466   0.76485   1.000
    O257    O    0.89141   0.20899   0.76555   1.000
    O258    O    0.87757   0.27437   0.77521   1.000
    O259    O    0.65809   0.56590   0.79029   1.000
    O260    O    0.71847   0.50757   0.79407   1.000
    O261    O    0.85363   0.34159   0.78871   1.000
    O262    O    0.83195   0.40608   0.80115   1.000
    O263    O    0.66974   0.68404   0.79720   1.000
    O264    O    0.93566   0.30929   0.81815   1.000
    O265    O    0.73050   0.59698   0.81930   1.000
    O266    O    0.58112   0.62420   0.83750   1.000
    O267    O    0.80788   0.47319   0.81469   1.000
    O268    O    0.79088   0.53865   0.82308   1.000
    O269    O    0.89417   0.43643   0.84207   1.000
    O270    O    0.01040   0.28509   0.85005   1.000
    O271    O    0.99706   0.34137   0.86124   1.000
    O272    O    0.45823   0.53542   0.87008   1.000
    O273    O    0.97726   0.40402   0.87271   1.000
    O274    O    0.95546   0.45933   0.87917   1.000
    O275    O    0.47944   0.59164   0.87835   1.000
    O276    O    0.49971   0.65438   0.88953   1.000
    O277    O    0.08092   0.37240   0.91511   1.000
    O278    O    0.39818   0.55835   0.90735   1.000
    O279    O    0.29570   0.45587   0.92706   1.000
    O280    O    0.23299   0.39863   0.93199   1.000
    O281    O    0.31290   0.52145   0.93513   1.000
    O282    O    0.33700   0.58878   0.94835   1.000
    O283    O    0.22402   0.48694   0.95614   1.000
    O284    O    0.17246   0.31229   0.95400   1.000
    O285    O    0.16132   0.42969   0.96107   1.000
    O286    O    0.34734   0.71962   0.02083   1.000
loop_
    _geom_bond_atom_site_label_1
    _geom_bond_atom_site_label_2
    _geom_bond_distance
    _geom_bond_site_symmetry_2
    _ccdc_geom_bond_type
    C63    O128      0.63354      .   S
    C73    O128      0.63354      .   S
    C63    O129      0.77183  1_554   S
    C64    O129      0.77183      .   S
    C73    O130      0.61109      .   S
    C117   O130      0.61109      .   S
    C73    O131      0.57491      .   S
    C119   O131      0.57491      .   S
    C117   O132      0.86055      .   S
    C7     O132      0.86055      .   S
    C23    O133      0.54467  1_554   S
    C64    O133      0.54467      .   S
    C86    O134      0.64055      .   S
    C124   O134      0.64055      .   S
    C86    O135      0.74716      .   S
    C76    O135      0.74716      .   S
    C86    O136      0.63589  1_554   S
    C126   O136      0.63589      .   S
    C124   O137      1.03893  1_554   S
    C4     O137      1.03893      .   S
    C123   O138      1.09107      .   S
    C7     O138      1.09107      .   S
    C123   O139      0.63572      .   S
    C83    O139      0.63572      .   S
    C79    O140      0.69859      .   S
    C76    O140      0.69859      .   S
    C79    O141      0.69889      .   S
    C85    O141      0.69889      .   S
    C79    O142      0.54476      .   S
    C28    O142      0.54476  1_556   S
    C119   O143      1.06991      .   S
    C7     O143      1.06991      .   S
    C76    O144      0.69763      .   S
    C75    O144      0.69763      .   S
    C7     O145      1.04157      .   S
    C121   O145      1.04157      .   S
    C7     O146      1.02304      .   S
    C89    O146      1.02304      .   S
    C83    O147      0.74703  1_565   S
    C85    O147      0.74703      .   S
    C83    O148      0.64084      .   S
    C121   O148      0.64084      .   S
    C85    O149      0.69742      .   S
    C81    O149      0.69742      .   S
    C75    O150      0.53094  1_455   S
    C26    O150      0.53094      .   S
    C75    O151      0.66291      .   S
    C95    O151      0.66291  1_655   S
    C13    O152      0.54492      .   S
    C39    O152      0.54492      .   S
    C81    O153      0.66169      .   S
    C95    O153      0.66169  1_655   S
    C81    O154      0.54491      .   S
    C31    O154      0.54491      .   S
    C89    O155      0.67509      .   S
    C39    O155      0.67509      .   S
    C89    O156      0.67474      .   S
    C33    O156      0.67474      .   S
    C95    O157      1.02120      .   S
    C1     O157      1.02120      .   S
    C39    O158      0.69775      .   S
    C43    O158      0.69775      .   S
    C9     O159      0.54498      .   S
    C33    O159      0.54498      .   S
    C33    O160      0.69772      .   S
    C35    O160      0.69772      .   S
    C97    O161      0.64086      .   S
    C41    O161      0.64086      .   S
    C97    O162      1.03999      .   S
    C1     O162      1.03999      .   S
    C43    O163      0.74744      .   S
    C41    O163      0.74744  1_545   S
    C43    O164      0.69870      .   S
    C37    O164      0.69870      .   S
    C41    O165      0.63578      .   S
    C99    O165      0.63578      .   S
    C1     O166      1.07852      .   S
    C111   O166      1.07852      .   S
    C1     O167      1.09336      .   S
    C99    O167      1.09336      .   S
    C1     O168      1.04971      .   S
    C109   O168      1.04971      .   S
    C35    O169      0.69861      .   S
    C37    O169      0.69861      .   S
    C35    O170      0.74720      .   S
    C45    O170      0.74720      .   S
    C111   O171      0.63739      .   S
    C59    O171      0.63739      .   S
    C37    O172      0.54481      .   S
    C11    O172      0.54481      .   S
    C101   O173      0.64042      .   S
    C45    O173      0.64042      .   S
    C101   O174      1.04052      .   S
    C3     O174      1.04052      .   S
    C45    O175      0.63613      .   S
    C103   O175      0.63613      .   S
    C17    O176      0.54484      .   S
    C51    O176      0.54484      .   S
    C59    O177      0.63947      .   S
    C109   O177      0.63947      .   S
    C59    O178      0.74793      .   S
    C49    O178      0.74793      .   S
    C107   O179      1.09976      .   S
    C3     O179      1.09976      .   S
    C107   O180      0.63489      .   S
    C55    O180      0.63489      .   S
    C51    O181      0.69882      .   S
    C49    O181      0.69882      .   S
    C51    O182      0.69890      .   S
    C57    O182      0.69890      .   S
    C49    O183      0.69810      .   S
    C47    O183      0.69810      .   S
    C103   O184      1.09026      .   S
    C3     O184      1.09026      .   S
    C3     O185      1.03412      .   S
    C105   O185      1.03412      .   S
    C3     O186      1.02030      .   S
    C93    O186      1.02030      .   S
    C55    O187      0.74771      .   S
    C57    O187      0.74771      .   S
    C55    O188      0.64148      .   S
    C105   O188      0.64148      .   S
    C57    O189      0.69771      .   S
    C53    O189      0.69771      .   S
    C47    O190      0.55916  1_655   S
    C15    O190      0.55916      .   S
    C47    O191      0.68728  1_655   S
    C91    O191      0.68728      .   S
    C25    O192      0.54493      .   S
    C67    O192      0.54493      .   S
    C53    O193      0.68900      .   S
    C91    O193      0.68900  1_455   S
    C53    O194      0.54495      .   S
    C19    O194      0.54495      .   S
    C93    O195      0.67500      .   S
    C67    O195      0.67500      .   S
    C93    O196      0.67483      .   S
    C61    O196      0.67483      .   S
    C91    O197      1.02169      .   S
    C5     O197      1.02169      .   S
    C67    O198      0.69771      .   S
    C71    O198      0.69771      .   S
    C20    O199      0.54498      .   S
    C61    O199      0.54498      .   S
    C61    O200      0.69756      .   S
    C62    O200      0.69756      .   S
    C113   O201      0.63913      .   S
    C69    O201      0.63913      .   S
    C113   O202      1.05079      .   S
    C5     O202      1.05079      .   S
    C71    O203      0.74719      .   S
    C69    O203      0.74719      .   S
    C71    O204      0.69857      .   S
    C65    O204      0.69857      .   S
    C69    O205      0.63733      .   S
    C115   O205      0.63733      .   S
    C5     O206      1.06722      .   S
    C127   O206      1.06722      .   S
    C5     O207      1.07589      .   S
    C115   O207      1.07589      .   S
    C5     O208      1.05880      .   S
    C125   O208      1.05880      .   S
    C62    O209      0.69866      .   S
    C65    O209      0.69866      .   S
    C62    O210      0.74691      .   S
    C72    O210      0.74691      .   S
    C127   O211      0.63826      .   S
    C87    O211      0.63826      .   S
    C65    O212      0.54479      .   S
    C22    O212      0.54479      .   S
    C116   O213      0.63855      .   S
    C72    O213      0.63855      .   S
    C116   O214      1.05812      .   S
    C6     O214      1.05812      .   S
    C72    O215      0.63808      .   S
    C118   O215      0.63808      .   S
    C29    O216      0.54478      .   S
    C78    O216      0.54478      .   S
    C87    O217      0.63836      .   S
    C125   O217      0.63836      .   S
    C87    O218      0.74686      .   S
    C77    O218      0.74686      .   S
    C122   O219      1.08387      .   S
    C6     O219      1.08387      .   S
    C122   O220      0.63671      .   S
    C82    O220      0.63671      .   S
    C78    O221      0.69861      .   S
    C77    O221      0.69861      .   S
    C78    O222      0.69858      .   S
    C84    O222      0.69858      .   S
    C118   O223      1.06821      .   S
    C6     O223      1.06821      .   S
    C77    O224      0.69761      .   S
    C74    O224      0.69761      .   S
    C6     O225      1.04683      .   S
    C120   O225      1.04683      .   S
    C6     O226      1.02516      .   S
    C88    O226      1.02516      .   S
    C82    O227      0.74685  1_565   S
    C84    O227      0.74685      .   S
    C82    O228      0.63993      .   S
    C120   O228      0.63993      .   S
    C84    O229      0.69751      .   S
    C80    O229      0.69751      .   S
    C74    O230      0.52948  1_455   S
    C27    O230      0.52948      .   S
    C74    O231      0.65223  1_455   S
    C94    O231      0.65223      .   S
    C12    O232      0.54494      .   S
    C38    O232      0.54494      .   S
    C80    O233      0.66102      .   S
    C94    O233      0.66102  1_655   S
    C80    O234      0.54492      .   S
    C30    O234      0.54492      .   S
    C88    O235      0.67498      .   S
    C38    O235      0.67498      .   S
    C88    O236      0.67494      .   S
    C32    O236      0.67494      .   S
    C94    O237      1.02035      .   S
    C0     O237      1.02035      .   S
    C38    O238      0.69755      .   S
    C42    O238      0.69755      .   S
    C8     O239      0.54497      .   S
    C32    O239      0.54497      .   S
    C32    O240      0.69800      .   S
    C34    O240      0.69800      .   S
    C96    O241      0.64056      .   S
    C40    O241      0.64056      .   S
    C96    O242      1.04174      .   S
    C0     O242      1.04174      .   S
    C42    O243      0.74702      .   S
    C40    O243      0.74702  1_545   S
    C42    O244      0.69849      .   S
    C36    O244      0.69849      .   S
    C40    O245      0.63582      .   S
    C98    O245      0.63582      .   S
    C0     O246      1.08832      .   S
    C110   O246      1.08832      .   S
    C0     O247      1.09011      .   S
    C98    O247      1.09011      .   S
    C0     O248      1.04054      .   S
    C108   O248      1.04054      .   S
    C34    O249      0.69863      .   S
    C36    O249      0.69863      .   S
    C34    O250      0.74741      .   S
    C44    O250      0.74741      .   S
    C110   O251      0.63619      .   S
    C58    O251      0.63619      .   S
    C36    O252      0.54479      .   S
    C10    O252      0.54479      .   S
    C100   O253      0.63943      .   S
    C44    O253      0.63943      .   S
    C100   O254      1.04918      .   S
    C2     O254      1.04918      .   S
    C44    O255      0.63716      .   S
    C102   O255      0.63716      .   S
    C16    O256      0.54479      .   S
    C50    O256      0.54479      .   S
    C58    O257      0.64035      .   S
    C108   O257      0.64035      .   S
    C58    O258      0.74669      .   S
    C48    O258      0.74669      .   S
    C106   O259      1.09228      .   S
    C2     O259      1.09228      .   S
    C106   O260      0.63591      .   S
    C54    O260      0.63591      .   S
    C50    O261      0.69831      .   S
    C48    O261      0.69831      .   S
    C50    O262      0.69856      .   S
    C56    O262      0.69856      .   S
    C102   O263      1.08135      .   S
    C2     O263      1.08135      .   S
    C48    O264      0.69753      .   S
    C46    O264      0.69753      .   S
    C2     O265      1.04072      .   S
    C104   O265      1.04072      .   S
    C2     O266      1.02342      .   S
    C92    O266      1.02342      .   S
    C54    O267      0.74732      .   S
    C56    O267      0.74732      .   S
    C54    O268      0.64070      .   S
    C104   O268      0.64070      .   S
    C56    O269      0.69779      .   S
    C52    O269      0.69779      .   S
    C46    O270      0.55207  1_655   S
    C14    O270      0.55207      .   S
    C46    O271      0.71295      .   S
    C90    O271      0.71295  1_455   S
    C24    O272      0.54497      .   S
    C66    O272      0.54497      .   S
    C52    O273      0.67768      .   S
    C90    O273      0.67768  1_455   S
    C52    O274      0.54494      .   S
    C18    O274      0.54494      .   S
    C92    O275      0.67503      .   S
    C66    O275      0.67503      .   S
    C92    O276      0.67488      .   S
    C60    O276      0.67488      .   S
    C90    O277      1.02254      .   S
    C4     O277      1.02254      .   S
    C66    O278      0.69751      .   S
    C70    O278      0.69751      .   S
    C112   O279      0.63904      .   S
    C68    O279      0.63904      .   S
    C112   O280      1.05413      .   S
    C4     O280      1.05413      .   S
    C70    O281      0.74676      .   S
    C68    O281      0.74676      .   S
    C70    O282      0.69859      .   S
    C64    O282      0.69859      .   S
    C68    O283      0.63775      .   S
    C114   O283      0.63775      .   S
    C4     O284      1.09037      .   S
    C126   O284      1.09037      .   S
    C4     O285      1.07073      .   S
    C114   O285      1.07073      .   S
    C119   O286      0.88845      .   S
    C63    O286      0.88845      .   S
