# CIF file generated by openbabel 2.4.90, see http://openbabel.sf.net
data_I
_chemical_name_common ''
_cell_length_a 15.026
_cell_length_b 14.001
_cell_length_c 14.741
_cell_angle_alpha 62.372
_cell_angle_beta 59.451
_cell_angle_gamma 57.636
_space_group_name_H-M_alt 'P 1'
_space_group_name_Hall 'P 1'
loop_
    _symmetry_equiv_pos_as_xyz
    x,y,z
loop_
    _atom_site_label
    _atom_site_type_symbol
    _atom_site_fract_x
    _atom_site_fract_y
    _atom_site_fract_z
    _atom_site_occupancy
    C0      C    0.83456   0.20220   0.49304   1.000
    C1      C    0.95794   0.04669   0.80952   1.000
    C2      C    0.51083   0.50079   0.27250   1.000
    C3      C    0.52968   0.29828   0.00619   1.000
    C4      C    0.81417   0.45380   0.69008   1.000
    C5      C    0.28463   0.99878   0.22738   1.000
    C6      C    0.16551   0.79784   0.50600   1.000
    C7      C    0.04209   0.95332   0.19035   1.000
    C8      C    0.48920   0.49924   0.72737   1.000
    C9      C    0.47037   0.70175   0.99366   1.000
    C10     C    0.18588   0.54622   0.30978   1.000
    C11     C    0.71542   0.00126   0.77244   1.000
    O12     O    0.90768   0.10143   0.47513   1.000
    O13     O    0.82827   0.23035   0.56700   1.000
    O14     O    0.50295   0.45121   0.22437   1.000
    O15     O    0.85884   0.10904   0.80725   1.000
    O16     O    0.45239   0.60543   0.28133   1.000
    O17     O    0.03970   0.99751   0.73306   1.000
    O18     O    0.48394   0.39929   0.02380   1.000
    O19     O    0.62656   0.26990   0.93190   1.000
    O20     O    0.17935   0.04810   0.27589   1.000
    O21     O    0.77514   0.39136   0.69228   1.000
    O22     O    0.33957   0.89413   0.21855   1.000
    O23     O    0.77050   0.50295   0.76658   1.000
    O24     O    0.09237   0.89861   0.52472   1.000
    O25     O    0.17178   0.76969   0.43195   1.000
    O26     O    0.49708   0.54881   0.77550   1.000
    O27     O    0.14119   0.89097   0.19262   1.000
    O28     O    0.54763   0.39459   0.71855   1.000
    O29     O    0.96033   0.00251   0.26681   1.000
    O30     O    0.51612   0.60074   0.97605   1.000
    O31     O    0.37350   0.73013   0.06795   1.000
    O32     O    0.82070   0.95194   0.72393   1.000
    O33     O    0.22489   0.60868   0.30757   1.000
    O34     O    0.66048   0.10591   0.78128   1.000
    O35     O    0.22955   0.49707   0.23329   1.000
loop_
    _geom_bond_atom_site_label_1
    _geom_bond_atom_site_label_2
    _geom_bond_distance
    _geom_bond_site_symmetry_2
    _ccdc_geom_bond_type
    C3     O18       1.28772      .   S
    C3     O19       1.28060  1_554   S
    O31    C9        1.28058  1_554   S
    C7     O27       1.26977      .   S
    C7     O29       1.28861  1_465   S
    O22    C5        1.27204      .   S
    O14    C2        1.27644      .   S
    C5     O20       1.27640  1_565   S
    O35    C10       1.28829      .   S
    C2     O16       1.27202      .   S
    O33    C10       1.26977      .   S
    O25    C6        1.26901      .   S
    O12    C0        1.28787      .   S
    C0     O13       1.26760      .   S
    C6     O24       1.29122      .   S
    C4     O21       1.26975      .   S
    C4     O23       1.28833      .   S
    O28    C8        1.27200      .   S
    O32    C11       1.27640  1_565   S
    C8     O26       1.27643      .   S
    O17    C1        1.28856  1_465   S
    C11    O34       1.27206      .   S
    O15    C1        1.26974      .   S
    O30    C9        1.28779      .   S
