# CIF file generated by openbabel 2.4.90, see http://openbabel.sf.net
data_I
_chemical_name_common ''
_cell_length_a 15.026
_cell_length_b 14.001
_cell_length_c 14.741
_cell_angle_alpha 62.372
_cell_angle_beta 59.451
_cell_angle_gamma 57.636
_space_group_name_H-M_alt 'P 1'
_space_group_name_Hall 'P 1'
loop_
    _symmetry_equiv_pos_as_xyz
    x,y,z
loop_
    _atom_site_label
    _atom_site_type_symbol
    _atom_site_fract_x
    _atom_site_fract_y
    _atom_site_fract_z
    _atom_site_occupancy
    Zr0     Zr   0.95020   0.02653   0.63534   1.000
    Zr1     Zr   0.61243   0.47387   0.86438   1.000
    Zr2     Zr   0.04985   0.97351   0.36450   1.000
    Zr3     Zr   0.38761   0.52616   0.13548   1.000
    Zr4     Zr   0.70529   0.25026   0.74979   1.000
    Zr5     Zr   0.29475   0.74978   0.25006   1.000
    Zr6     Zr   0.83456   0.20220   0.49304   1.000
    Zr7     Zr   0.95794   0.04669   0.80952   1.000
    Zr8     Zr   0.51083   0.50079   0.27250   1.000
    Zr9     Zr   0.52968   0.29828   0.00619   1.000
    Zr10    Zr   0.81417   0.45380   0.69008   1.000
    Zr11    Zr   0.28463   0.99878   0.22738   1.000
    Zr12    Zr   0.16551   0.79784   0.50600   1.000
    Zr13    Zr   0.04209   0.95332   0.19035   1.000
    Zr14    Zr   0.48920   0.49924   0.72737   1.000
    Zr15    Zr   0.47037   0.70175   0.99366   1.000
    Zr16    Zr   0.18588   0.54622   0.30978   1.000
    Zr17    Zr   0.71542   0.00126   0.77244   1.000
    Zr18    Zr   0.90768   0.10143   0.47513   1.000
    Zr19    Zr   0.82827   0.23035   0.56700   1.000
    Zr20    Zr   0.50295   0.45121   0.22437   1.000
    Zr21    Zr   0.85884   0.10904   0.80725   1.000
    Zr22    Zr   0.45239   0.60543   0.28133   1.000
    Zr23    Zr   0.03970   0.99751   0.73306   1.000
    Zr24    Zr   0.48394   0.39929   0.02380   1.000
    Zr25    Zr   0.62656   0.26990   0.93190   1.000
    Zr26    Zr   0.17935   0.04810   0.27589   1.000
    Zr27    Zr   0.77514   0.39136   0.69228   1.000
    Zr28    Zr   0.33957   0.89413   0.21855   1.000
    Zr29    Zr   0.77050   0.50295   0.76658   1.000
    Zr30    Zr   0.09237   0.89861   0.52472   1.000
    Zr31    Zr   0.17178   0.76969   0.43195   1.000
    Zr32    Zr   0.49708   0.54881   0.77550   1.000
    Zr33    Zr   0.14119   0.89097   0.19262   1.000
    Zr34    Zr   0.54763   0.39459   0.71855   1.000
    Zr35    Zr   0.96033   0.00251   0.26681   1.000
    Zr36    Zr   0.51612   0.60074   0.97605   1.000
    Zr37    Zr   0.37350   0.73013   0.06795   1.000
    Zr38    Zr   0.82070   0.95194   0.72393   1.000
    Zr39    Zr   0.22489   0.60868   0.30757   1.000
    Zr40    Zr   0.66048   0.10591   0.78128   1.000
    Zr41    Zr   0.22955   0.49707   0.23329   1.000
    O42     O    0.50681   0.34878   0.01500   1.000
    O43     O    0.57812   0.28409   0.96905   1.000
    O44     O    0.43578   0.46273   0.07964   1.000
    O45     O    0.33412   0.73995   0.15901   1.000
    O46     O    0.42193   0.71594   0.03081   1.000
    O47     O    0.44528   0.48869   0.17993   1.000
    O48     O    0.30858   0.51162   0.18439   1.000
    O49     O    0.09164   0.92215   0.19149   1.000
    O50     O    0.00121   0.97792   0.22858   1.000
    O51     O    0.21797   0.82038   0.22134   1.000
    O52     O    0.31210   0.94645   0.22297   1.000
    O53     O    0.31716   0.82195   0.23431   1.000
    O54     O    0.50689   0.47600   0.24844   1.000
    O55     O    0.23199   0.02344   0.25164   1.000
    O56     O    0.20772   0.52165   0.27154   1.000
    O57     O    0.37357   0.67761   0.26570   1.000
    O58     O    0.25982   0.67923   0.27882   1.000
    O59     O    0.23327   0.75973   0.34101   1.000
    O60     O    0.00509   0.98801   0.31566   1.000
    O61     O    0.48161   0.55311   0.27692   1.000
    O62     O    0.11460   0.01080   0.32020   1.000
    O63     O    0.20538   0.57745   0.30868   1.000
    O64     O    0.97876   0.03747   0.41982   1.000
    O65     O    0.16864   0.78376   0.46898   1.000
    O66     O    0.87112   0.15182   0.48409   1.000
    O67     O    0.83141   0.21628   0.53002   1.000
    O68     O    0.12894   0.84823   0.51536   1.000
    O69     O    0.02129   0.96257   0.58003   1.000
    O70     O    0.76678   0.24030   0.65840   1.000
    O71     O    0.88545   0.98924   0.67964   1.000
    O72     O    0.99495   0.01202   0.68420   1.000
    O73     O    0.79466   0.42258   0.69118   1.000
    O74     O    0.79234   0.47837   0.72833   1.000
    O75     O    0.74022   0.32081   0.72104   1.000
    O76     O    0.51842   0.44691   0.72296   1.000
    O77     O    0.62646   0.32242   0.73417   1.000
    O78     O    0.76806   0.97660   0.74819   1.000
    O79     O    0.49314   0.52403   0.75144   1.000
    O80     O    0.99882   0.02210   0.77129   1.000
    O81     O    0.68289   0.17809   0.76554   1.000
    O82     O    0.78207   0.17965   0.77852   1.000
    O83     O    0.66592   0.26008   0.84085   1.000
    O84     O    0.69147   0.48841   0.81548   1.000
    O85     O    0.68795   0.05359   0.77686   1.000
    O86     O    0.55476   0.51134   0.81994   1.000
    O87     O    0.90839   0.07787   0.80839   1.000
    O88     O    0.56428   0.53730   0.92022   1.000
    O89     O    0.49325   0.65125   0.98486   1.000
    O90     O    0.92894   0.06398   0.55524   1.000
    O91     O    0.88924   0.12844   0.60117   1.000
    O92     O    0.54819   0.43658   0.94409   1.000
    O93     O    0.61950   0.37188   0.89814   1.000
    O94     O    0.07111   0.93606   0.44461   1.000
    O95     O    0.11082   0.87160   0.39823   1.000
    O96     O    0.45187   0.56345   0.05577   1.000
    O97     O    0.38055   0.62815   0.10172   1.000
    N98     N    0.40985   0.14618   0.12057   1.000
    O99     O    0.45464   0.20240   0.07883   1.000
    O100    O    0.36371   0.09131   0.16074   1.000
    N101    N    0.00003   0.50001   0.49993   1.000
    O102    O    0.93141   0.48253   0.57072   1.000
    O103    O    0.06864   0.51749   0.42914   1.000
    N104    N    0.32154   0.64604   0.62261   1.000
    O105    O    0.26295   0.70213   0.58003   1.000
    O106    O    0.38325   0.59138   0.66185   1.000
    N107    N    0.59020   0.85386   0.87783   1.000
    O108    O    0.63634   0.90873   0.83837   1.000
    O109    O    0.54541   0.79764   0.92024   1.000
    N110    N    0.00001   0.00000   0.99992   1.000
    O111    O    0.01538   0.98233   0.07082   1.000
    O112    O    0.98464   0.01767   0.92904   1.000
    N113    N    0.67851   0.35399   0.37723   1.000
    O114    O    0.61680   0.40865   0.33800   1.000
    O115    O    0.73711   0.29791   0.41960   1.000
loop_
    _geom_bond_atom_site_label_1
    _geom_bond_atom_site_label_2
    _geom_bond_distance
    _geom_bond_site_symmetry_2
    _ccdc_geom_bond_type
    Zr9    O42       0.64386      .   S
    Zr24   O42       0.64386      .   S
    Zr9    O43       0.64030  1_554   S
    Zr25   O43       0.64030      .   S
    Zr24   O44       1.17240      .   S
    Zr3    O44       1.17240      .   S
    Zr37   O45       1.20310      .   S
    Zr5    O45       1.20310      .   S
    Zr37   O46       0.64029      .   S
    Zr15   O46       0.64029  1_556   S
    Zr3    O47       1.10768      .   S
    Zr20   O47       1.10768      .   S
    Zr3    O48       1.10629      .   S
    Zr41   O48       1.10629      .   S
    Zr13   O49       0.63489      .   S
    Zr33   O49       0.63489      .   S
    Zr13   O50       0.64430      .   S
    Zr35   O50       0.64430  1_645   S
    Zr33   O51       1.17255      .   S
    Zr5    O51       1.17255      .   S
    Zr28   O52       0.63602      .   S
    Zr11   O52       0.63602      .   S
    Zr28   O53       1.12051      .   S
    Zr5    O53       1.12051      .   S
    Zr20   O54       0.63822      .   S
    Zr8    O54       0.63822      .   S
    Zr11   O55       0.63820  1_565   S
    Zr26   O55       0.63820      .   S
    Zr41   O56       0.64415      .   S
    Zr16   O56       0.64415      .   S
    Zr5    O57       1.12122      .   S
    Zr22   O57       1.12122      .   S
    Zr5    O58       1.17107      .   S
    Zr39   O58       1.17107      .   S
    Zr5    O59       1.20275      .   S
    Zr31   O59       1.20275      .   S
    Zr35   O60       1.10565  1_645   S
    Zr2    O60       1.10565      .   S
    Zr8    O61       0.63601      .   S
    Zr22   O61       0.63601      .   S
    Zr26   O62       1.10796      .   S
    Zr2    O62       1.10796  1_565   S
    Zr39   O63       0.63489      .   S
    Zr16   O63       0.63489      .   S
    Zr2    O64       1.17283  1_465   S
    Zr18   O64       1.17283      .   S
    Zr31   O65       0.63451      .   S
    Zr12   O65       0.63451      .   S
    Zr18   O66       0.64394      .   S
    Zr6    O66       0.64394      .   S
    Zr6    O67       0.63380      .   S
    Zr19   O67       0.63380      .   S
    Zr12   O68       0.64561      .   S
    Zr30   O68       0.64561      .   S
    Zr30   O69       1.17278      .   S
    Zr0    O69       1.17278  1_645   S
    Zr19   O70       1.20792      .   S
    Zr4    O70       1.20792      .   S
    Zr0    O71       1.10797  1_545   S
    Zr38   O71       1.10797      .   S
    Zr0    O72       1.10568      .   S
    Zr23   O72       1.10568  1_465   S
    Zr10   O73       0.63487      .   S
    Zr27   O73       0.63487      .   S
    Zr10   O74       0.64417      .   S
    Zr29   O74       0.64417      .   S
    Zr27   O75       1.17107      .   S
    Zr4    O75       1.17107      .   S
    Zr34   O76       0.63600      .   S
    Zr14   O76       0.63600      .   S
    Zr34   O77       1.12121      .   S
    Zr4    O77       1.12121      .   S
    Zr38   O78       0.63820      .   S
    Zr17   O78       0.63820  1_545   S
    Zr14   O79       0.63822      .   S
    Zr32   O79       0.63822      .   S
    Zr23   O80       0.64428  1_465   S
    Zr7    O80       0.64428      .   S
    Zr4    O81       1.12049      .   S
    Zr40   O81       1.12049      .   S
    Zr4    O82       1.17256      .   S
    Zr21   O82       1.17256      .   S
    Zr4    O83       1.20308      .   S
    Zr25   O83       1.20308      .   S
    Zr29   O84       1.10626      .   S
    Zr1    O84       1.10626      .   S
    Zr17   O85       0.63603      .   S
    Zr40   O85       0.63603      .   S
    Zr32   O86       1.10772      .   S
    Zr1    O86       1.10772      .   S
    Zr21   O87       0.63487      .   S
    Zr7    O87       0.63487      .   S
    Zr1    O88       1.17234      .   S
    Zr36   O88       1.17234      .   S
    Zr36   O89       0.64389      .   S
    Zr15   O89       0.64389      .   S
    Zr18   O90       1.18375      .   S
    Zr0    O90       1.18375      .   S
    Zr19   O91       1.23773      .   S
    Zr0    O91       1.23773      .   S
    Zr24   O92       1.18436  1_554   S
    Zr1    O92       1.18436      .   S
    Zr25   O93       1.23701      .   S
    Zr1    O93       1.23701      .   S
    Zr30   O94       1.18384      .   S
    Zr2    O94       1.18384      .   S
    Zr31   O95       1.23610      .   S
    Zr2    O95       1.23610      .   S
    Zr36   O96       1.18445  1_556   S
    Zr3    O96       1.18445      .   S
    Zr37   O97       1.23698      .   S
    Zr3    O97       1.23698      .   S
    N98    O99       1.07146      .   S
    Zr9    O99       1.81118      .   S
    N98    O100      1.07351      .   S
    Zr11   O100      1.82660  1_565   S
    N101   O102      1.07305  1_455   S
    Zr10   O102      1.81994      .   S
    N101   O103      1.07305      .   S
    Zr16   O103      1.81996      .   S
    N104   O105      1.07242      .   S
    Zr12   O105      1.81603      .   S
    N104   O106      1.07469      .   S
    Zr14   O106      1.82770      .   S
    N107   O108      1.07472      .   S
    Zr17   O108      1.82794  1_545   S
    N107   O109      1.07065      .   S
    Zr15   O109      1.81042      .   S
    N110   O111      1.07298  1_546   S
    Zr13   O111      1.81971      .   S
    N110   O112      1.07266  1_455   S
    Zr7    O112      1.81940      .   S
    N113   O114      1.07461      .   S
    Zr8    O114      1.82764      .   S
    N113   O115      1.07055      .   S
    Zr6    O115      1.81024      .   S
