# CIF file generated by openbabel 2.4.90, see http://openbabel.sf.net
data_I
_chemical_name_common 'VESTA_phase_1'
_cell_length_a 23.068
_cell_length_b 16.552
_cell_length_c 16.552
_cell_angle_alpha 90.011
_cell_angle_beta 89.999
_cell_angle_gamma 90.002
_space_group_name_H-M_alt 'P 1'
_space_group_name_Hall 'P 1'
loop_
    _symmetry_equiv_pos_as_xyz
    x,y,z
loop_
    _atom_site_label
    _atom_site_type_symbol
    _atom_site_fract_x
    _atom_site_fract_y
    _atom_site_fract_z
    _atom_site_occupancy
    Zn0     Zn   0.06988   0.37802   0.35726   1.000
    Zn1     Zn   0.56988   0.37802   0.35726   1.000
    Zn2     Zn   0.06987   0.62199   0.64270   1.000
    Zn3     Zn   0.56987   0.62199   0.64270   1.000
    Zn4     Zn   0.06987   0.64273   0.37802   1.000
    Zn5     Zn   0.56988   0.64273   0.37802   1.000
    Zn6     Zn   0.06988   0.35728   0.62196   1.000
    Zn7     Zn   0.56988   0.35728   0.62196   1.000
    Zn8     Zn   0.18013   0.12199   0.85725   1.000
    Zn9     Zn   0.68012   0.12199   0.85725   1.000
    Zn10    Zn   0.18013   0.87801   0.14274   1.000
    Zn11    Zn   0.68013   0.87801   0.14274   1.000
    Zn12    Zn   0.18012   0.85728   0.87804   1.000
    Zn13    Zn   0.68012   0.85728   0.87804   1.000
    Zn14    Zn   0.18012   0.14272   0.12196   1.000
    Zn15    Zn   0.68012   0.14272   0.12196   1.000
    Zn16    Zn   0.43012   0.62199   0.64273   1.000
    Zn17    Zn   0.93012   0.62199   0.64273   1.000
    Zn18    Zn   0.43012   0.37802   0.35720   1.000
    Zn19    Zn   0.93013   0.37802   0.35720   1.000
    Zn20    Zn   0.43012   0.35728   0.62197   1.000
    Zn21    Zn   0.93013   0.35728   0.62197   1.000
    Zn22    Zn   0.43012   0.64273   0.37803   1.000
    Zn23    Zn   0.93012   0.64273   0.37803   1.000
    Zn24    Zn   0.31987   0.87802   0.14270   1.000
    Zn25    Zn   0.81988   0.87802   0.14270   1.000
    Zn26    Zn   0.31987   0.12200   0.85725   1.000
    Zn27    Zn   0.81987   0.12200   0.85725   1.000
    Zn28    Zn   0.31988   0.14272   0.12195   1.000
    Zn29    Zn   0.81988   0.14272   0.12195   1.000
    Zn30    Zn   0.31988   0.85729   0.87803   1.000
    Zn31    Zn   0.81988   0.85729   0.87803   1.000
    H32     H    0.09299   0.15554   0.24534   1.000
    H33     H    0.59299   0.15554   0.24534   1.000
    H34     H    0.09294   0.84443   0.75467   1.000
    H35     H    0.59294   0.84443   0.75467   1.000
    H36     H    0.09295   0.75448   0.15554   1.000
    H37     H    0.59295   0.75448   0.15554   1.000
    H38     H    0.09298   0.24555   0.84447   1.000
    H39     H    0.59298   0.24555   0.84447   1.000
    H40     H    0.15702   0.34449   0.74545   1.000
    H41     H    0.65702   0.34449   0.74545   1.000
    H42     H    0.15704   0.65553   0.25455   1.000
    H43     H    0.65704   0.65553   0.25455   1.000
    H44     H    0.15703   0.74544   0.65556   1.000
    H45     H    0.65703   0.74544   0.65556   1.000
    H46     H    0.15704   0.25457   0.34442   1.000
    H47     H    0.65704   0.25457   0.34442   1.000
    H48     H    0.40701   0.84447   0.75465   1.000
    H49     H    0.90701   0.84447   0.75465   1.000
    H50     H    0.40706   0.15558   0.24532   1.000
    H51     H    0.90706   0.15558   0.24532   1.000
    H52     H    0.40705   0.24553   0.84445   1.000
    H53     H    0.90705   0.24553   0.84445   1.000
    H54     H    0.40702   0.75446   0.15550   1.000
    H55     H    0.90702   0.75446   0.15552   1.000
    H56     H    0.34297   0.65552   0.25454   1.000
    H57     H    0.84298   0.65552   0.25454   1.000
    H58     H    0.34296   0.34448   0.74545   1.000
    H59     H    0.84296   0.34448   0.74545   1.000
    H60     H    0.34297   0.25458   0.34443   1.000
    H61     H    0.84297   0.25458   0.34443   1.000
    H62     H    0.34296   0.74544   0.65556   1.000
    H63     H    0.84296   0.74544   0.65550   1.000
    H64     H    0.00000   0.48687   0.40220   1.000
    H65     H    0.50000   0.48687   0.40220   1.000
    H66     H    0.00000   0.94041   0.17551   1.000
    H67     H    0.50000   0.94041   0.17551   1.000
    H68     H    1.00000   0.51314   0.59774   1.000
    H69     H    0.50000   0.51314   0.59774   1.000
    H70     H    1.00000   0.05959   0.82448   1.000
    H71     H    0.50000   0.05959   0.82448   1.000
    H72     H    1.00000   0.59775   0.48687   1.000
    H73     H    0.50000   0.59775   0.48687   1.000
    H74     H    1.00000   0.82437   0.94042   1.000
    H75     H    0.50000   0.82437   0.94042   1.000
    H76     H    0.00000   0.40226   0.51310   1.000
    H77     H    0.50000   0.40226   0.51310   1.000
    H78     H    0.00000   0.17564   0.05957   1.000
    H79     H    0.50000   0.17564   0.05957   1.000
    H80     H    0.25000   0.01314   0.90222   1.000
    H81     H    0.75000   0.01314   0.90222   1.000
    H82     H    0.25000   0.55963   0.67567   1.000
    H83     H    0.75000   0.55963   0.67567   1.000
    H84     H    0.25000   0.98686   0.09777   1.000
    H85     H    0.75000   0.98686   0.09777   1.000
    H86     H    0.25000   0.44039   0.32432   1.000
    H87     H    0.75000   0.44039   0.32432   1.000
    H88     H    0.25000   0.90229   0.98689   1.000
    H89     H    0.75000   0.90229   0.98689   1.000
    H90     H    0.25000   0.67549   0.44040   1.000
    H91     H    0.75000   0.67549   0.44040   1.000
    H92     H    0.25000   0.09772   0.01310   1.000
    H93     H    0.75000   0.09772   0.01310   1.000
    H94     H    0.25000   0.32455   0.55950   1.000
    H95     H    0.75000   0.32455   0.55950   1.000
    C96     C    0.05247   0.12360   0.23470   1.000
    C97     C    0.55247   0.12360   0.23470   1.000
    C98     C    0.05263   0.04340   0.20776   1.000
    C99     C    0.55263   0.04340   0.20776   1.000
    C100    C    0.10838   0.00140   0.18974   1.000
    C101    C    0.60838   0.00140   0.18974   1.000
    C102    C    0.05243   0.87638   0.76528   1.000
    C103    C    0.55243   0.87638   0.76528   1.000
    C104    C    0.05261   0.95659   0.79224   1.000
    C105    C    0.55261   0.95659   0.79224   1.000
    C106    C    0.10837   0.99858   0.81024   1.000
    C107    C    0.60837   0.99858   0.81024   1.000
    C108    C    0.05245   0.76509   0.12359   1.000
    C109    C    0.55245   0.76509   0.12359   1.000
    C110    C    0.05262   0.79209   0.04341   1.000
    C111    C    0.55262   0.79209   0.04341   1.000
    C112    C    0.10837   0.81017   0.00140   1.000
    C113    C    0.60837   0.81017   0.00140   1.000
    C114    C    0.05247   0.23492   0.87640   1.000
    C115    C    0.55247   0.23492   0.87640   1.000
    C116    C    0.05263   0.20792   0.95659   1.000
    C117    C    0.55263   0.20792   0.95659   1.000
    C118    C    0.10838   0.18985   0.99850   1.000
    C119    C    0.60838   0.18985   0.99850   1.000
    C120    C    0.19754   0.37643   0.73485   1.000
    C121    C    0.69754   0.37643   0.73485   1.000
    C122    C    0.19737   0.45663   0.70789   1.000
    C123    C    0.69737   0.45663   0.70789   1.000
    C124    C    0.14162   0.49861   0.68984   1.000
    C125    C    0.64162   0.49861   0.68984   1.000
    C126    C    0.19755   0.62358   0.26514   1.000
    C127    C    0.69755   0.62358   0.26514   1.000
    C128    C    0.19738   0.54339   0.29210   1.000
    C129    C    0.69738   0.54339   0.29210   1.000
    C130    C    0.14163   0.50141   0.31019   1.000
    C131    C    0.64163   0.50141   0.31019   1.000
    C132    C    0.19754   0.73481   0.62362   1.000
    C133    C    0.69754   0.73481   0.62362   1.000
    C134    C    0.19737   0.70780   0.54343   1.000
    C135    C    0.69737   0.70780   0.54343   1.000
    C136    C    0.14162   0.68981   0.50140   1.000
    C137    C    0.64162   0.68981   0.50140   1.000
    C138    C    0.19755   0.26521   0.37637   1.000
    C139    C    0.69755   0.26521   0.37637   1.000
    C140    C    0.19738   0.29222   0.45655   1.000
    C141    C    0.69738   0.29222   0.45655   1.000
    C142    C    0.14162   0.31022   0.49856   1.000
    C143    C    0.64163   0.31022   0.49856   1.000
    C144    C    0.44752   0.87640   0.76527   1.000
    C145    C    0.94752   0.87640   0.76527   1.000
    C146    C    0.44737   0.95660   0.79223   1.000
    C147    C    0.94737   0.95660   0.79223   1.000
    C148    C    0.39162   0.99861   0.81025   1.000
    C149    C    0.89162   0.99861   0.81025   1.000
    C150    C    0.44756   0.12362   0.23472   1.000
    C151    C    0.94757   0.12362   0.23472   1.000
    C152    C    0.44739   0.04342   0.20775   1.000
    C153    C    0.94739   0.04342   0.20775   1.000
    C154    C    0.39163   0.00142   0.18975   1.000
    C155    C    0.89163   0.00142   0.18975   1.000
    C156    C    0.44755   0.23491   0.87640   1.000
    C157    C    0.94755   0.23491   0.87640   1.000
    C158    C    0.44738   0.20792   0.95658   1.000
    C159    C    0.94738   0.20792   0.95658   1.000
    C160    C    0.39163   0.18984   0.99856   1.000
    C161    C    0.89163   0.18984   0.99856   1.000
    C162    C    0.44753   0.76509   0.12350   1.000
    C163    C    0.94753   0.76509   0.12350   1.000
    C164    C    0.44737   0.79208   0.04340   1.000
    C165    C    0.94737   0.79208   0.04340   1.000
    C166    C    0.39162   0.81016   0.00140   1.000
    C167    C    0.89162   0.81016   0.00140   1.000
    C168    C    0.30246   0.62358   0.26514   1.000
    C169    C    0.80246   0.62358   0.26514   1.000
    C170    C    0.30263   0.54339   0.29210   1.000
    C171    C    0.80263   0.54339   0.29210   1.000
    C172    C    0.35838   0.50140   0.31014   1.000
    C173    C    0.85838   0.50140   0.31014   1.000
    C174    C    0.30245   0.37643   0.73485   1.000
    C175    C    0.80245   0.37643   0.73485   1.000
    C176    C    0.30262   0.45662   0.70789   1.000
    C177    C    0.80262   0.45662   0.70789   1.000
    C178    C    0.35837   0.49860   0.68981   1.000
    C179    C    0.85837   0.49860   0.68981   1.000
    C180    C    0.30246   0.26521   0.37637   1.000
    C181    C    0.80246   0.26521   0.37637   1.000
    C182    C    0.30262   0.29222   0.45655   1.000
    C183    C    0.80263   0.29222   0.45655   1.000
    C184    C    0.35838   0.31023   0.49856   1.000
    C185    C    0.85838   0.31023   0.49856   1.000
    C186    C    0.30245   0.73481   0.62362   1.000
    C187    C    0.80245   0.73481   0.62362   1.000
    C188    C    0.30262   0.70780   0.54343   1.000
    C189    C    0.80262   0.70780   0.54343   1.000
    C190    C    0.35837   0.68978   0.50143   1.000
    C191    C    0.85838   0.68979   0.50143   1.000
    C192    C    0.00002   0.16360   0.24897   1.000
    C193    C    0.50002   0.16360   0.24897   1.000
    C194    C    0.00001   0.00300   0.19560   1.000
    C195    C    0.50001   0.00300   0.19560   1.000
    C196    C    0.00003   0.24880   0.27985   1.000
    C197    C    0.50003   0.24880   0.27985   1.000
    C198    C    0.99997   0.83641   0.75102   1.000
    C199    C    0.49997   0.83641   0.75102   1.000
    C200    C    0.99999   0.99700   0.80439   1.000
    C201    C    0.49999   0.99700   0.80439   1.000
    C202    C    0.99996   0.75121   0.72014   1.000
    C203    C    0.49997   0.75121   0.72014   1.000
    C204    C    0.99999   0.75085   0.16357   1.000
    C205    C    0.49999   0.75085   0.16357   1.000
    C206    C    0.99999   0.80423   0.00300   1.000
    C207    C    0.50000   0.80423   0.00300   1.000
    C208    C    0.99998   0.72007   0.24879   1.000
    C209    C    0.49998   0.72007   0.24879   1.000
    C210    C    0.00001   0.24916   0.83642   1.000
    C211    C    0.50001   0.24916   0.83642   1.000
    C212    C    0.00000   0.19577   0.99698   1.000
    C213    C    0.50001   0.19577   0.99698   1.000
    C214    C    0.00002   0.27994   0.75120   1.000
    C215    C    0.50002   0.27994   0.75120   1.000
    C216    C    0.24999   0.33644   0.74900   1.000
    C217    C    0.74999   0.33644   0.74900   1.000
    C218    C    0.25000   0.49703   0.69576   1.000
    C219    C    0.75000   0.49703   0.69576   1.000
    C220    C    0.24999   0.25122   0.77988   1.000
    C221    C    0.74999   0.25122   0.77988   1.000
    C222    C    0.25001   0.66357   0.25090   1.000
    C223    C    0.75001   0.66357   0.25090   1.000
    C224    C    0.25000   0.50298   0.30423   1.000
    C225    C    0.75000   0.50298   0.30423   1.000
    C226    C    0.25001   0.74879   0.22010   1.000
    C227    C    0.75001   0.74879   0.22013   1.000
    C228    C    0.25000   0.74906   0.66360   1.000
    C229    C    0.75000   0.74906   0.66360   1.000
    C230    C    0.25000   0.69564   0.50303   1.000
    C231    C    0.75000   0.69563   0.50303   1.000
    C232    C    0.25000   0.77984   0.74883   1.000
    C233    C    0.75000   0.77984   0.74883   1.000
    C234    C    0.25001   0.25096   0.33639   1.000
    C235    C    0.75001   0.25096   0.33639   1.000
    C236    C    0.25000   0.30440   0.49695   1.000
    C237    C    0.75000   0.30439   0.49695   1.000
    C238    C    0.25001   0.22016   0.25116   1.000
    C239    C    0.75001   0.22016   0.25116   1.000
    O240    O    0.04937   0.28148   0.29171   1.000
    O241    O    0.54937   0.28148   0.29171   1.000
    O242    O    0.15524   0.04074   0.18043   1.000
    O243    O    0.65524   0.04074   0.18043   1.000
    O244    O    0.10716   0.92413   0.18377   1.000
    O245    O    0.60716   0.92413   0.18377   1.000
    O246    O    0.04930   0.71851   0.70828   1.000
    O247    O    0.54930   0.71851   0.70828   1.000
    O248    O    0.15522   0.95924   0.81955   1.000
    O249    O    0.65522   0.95924   0.81955   1.000
    O250    O    0.10716   0.07585   0.81620   1.000
    O251    O    0.60716   0.07585   0.81620   1.000
    O252    O    0.04932   0.70823   0.28149   1.000
    O253    O    0.54932   0.70823   0.28149   1.000
    O254    O    0.15521   0.81952   0.04079   1.000
    O255    O    0.65521   0.81952   0.04079   1.000
    O256    O    0.10716   0.81622   0.92415   1.000
    O257    O    0.60716   0.81622   0.92415   1.000
    O258    O    0.04935   0.29177   0.71850   1.000
    O259    O    0.54935   0.29177   0.71850   1.000
    O260    O    0.15522   0.18047   0.95921   1.000
    O261    O    0.65522   0.18047   0.95921   1.000
    O262    O    0.10716   0.18379   0.07580   1.000
    O263    O    0.60716   0.18379   0.07580   1.000
    O264    O    0.20065   0.21853   0.79174   1.000
    O265    O    0.70065   0.21853   0.79174   1.000
    O266    O    0.09478   0.45925   0.68040   1.000
    O267    O    0.59478   0.45925   0.68045   1.000
    O268    O    0.14284   0.57588   0.68379   1.000
    O269    O    0.64284   0.57588   0.68370   1.000
    O270    O    0.20068   0.78147   0.20824   1.000
    O271    O    0.70068   0.78147   0.20824   1.000
    O272    O    0.09478   0.54077   0.31950   1.000
    O273    O    0.59478   0.54077   0.31952   1.000
    O274    O    0.14284   0.42414   0.31619   1.000
    O275    O    0.64284   0.42414   0.31619   1.000
    O276    O    0.20066   0.79179   0.78148   1.000
    O277    O    0.70066   0.79178   0.78148   1.000
    O278    O    0.09477   0.68045   0.54078   1.000
    O279    O    0.59477   0.68045   0.54078   1.000
    O280    O    0.14284   0.68375   0.42415   1.000
    O281    O    0.64284   0.68375   0.42415   1.000
    O282    O    0.20067   0.20822   0.21850   1.000
    O283    O    0.70067   0.20822   0.21850   1.000
    O284    O    0.09477   0.31955   0.45921   1.000
    O285    O    0.59478   0.31955   0.45921   1.000
    O286    O    0.14285   0.31626   0.57583   1.000
    O287    O    0.64285   0.31626   0.57583   1.000
    O288    O    0.45062   0.71853   0.70828   1.000
    O289    O    0.95063   0.71853   0.70828   1.000
    O290    O    0.34476   0.95927   0.81956   1.000
    O291    O    0.84476   0.95927   0.81956   1.000
    O292    O    0.39284   0.07588   0.81621   1.000
    O293    O    0.89284   0.07588   0.81621   1.000
    O294    O    0.45070   0.28150   0.29171   1.000
    O295    O    0.95070   0.28150   0.29171   1.000
    O296    O    0.34478   0.04077   0.18040   1.000
    O297    O    0.84478   0.04077   0.18043   1.000
    O298    O    0.39284   0.92416   0.18375   1.000
    O299    O    0.89284   0.92416   0.18375   1.000
    O300    O    0.45068   0.29177   0.71850   1.000
    O301    O    0.95068   0.29177   0.71850   1.000
    O302    O    0.34479   0.18049   0.95920   1.000
    O303    O    0.84479   0.18049   0.95920   1.000
    O304    O    0.39284   0.18379   0.07583   1.000
    O305    O    0.89284   0.18379   0.07583   1.000
    O306    O    0.45065   0.70823   0.28149   1.000
    O307    O    0.95065   0.70823   0.28149   1.000
    O308    O    0.34478   0.81953   0.04078   1.000
    O309    O    0.84478   0.81953   0.04078   1.000
    O310    O    0.39284   0.81622   0.92410   1.000
    O311    O    0.89284   0.81622   0.92414   1.000
    O312    O    0.29935   0.78147   0.20824   1.000
    O313    O    0.79935   0.78147   0.20824   1.000
    O314    O    0.40522   0.54076   0.31954   1.000
    O315    O    0.90522   0.54076   0.31954   1.000
    O316    O    0.35716   0.42413   0.31621   1.000
    O317    O    0.85716   0.42413   0.31621   1.000
    O318    O    0.29932   0.21853   0.79174   1.000
    O319    O    0.79932   0.21853   0.79174   1.000
    O320    O    0.40522   0.45924   0.68047   1.000
    O321    O    0.90522   0.45924   0.68047   1.000
    O322    O    0.35716   0.57587   0.68379   1.000
    O323    O    0.85716   0.57587   0.68379   1.000
    O324    O    0.29935   0.20823   0.21850   1.000
    O325    O    0.79935   0.20823   0.21850   1.000
    O326    O    0.40523   0.31955   0.45920   1.000
    O327    O    0.90523   0.31955   0.45920   1.000
    O328    O    0.35716   0.31625   0.57580   1.000
    O329    O    0.85716   0.31626   0.57580   1.000
    O330    O    0.29933   0.79179   0.78148   1.000
    O331    O    0.79933   0.79179   0.78148   1.000
    O332    O    0.40522   0.68046   0.54077   1.000
    O333    O    0.90522   0.68046   0.54077   1.000
    O334    O    0.35715   0.68376   0.42415   1.000
    O335    O    0.85715   0.68376   0.42415   1.000
    O336    O    0.00000   0.42678   0.40300   1.000
    O337    O    0.50000   0.42678   0.40300   1.000
    O338    O    1.00000   0.57322   0.59699   1.000
    O339    O    0.50000   0.57322   0.59699   1.000
    O340    O    1.00000   0.59700   0.42678   1.000
    O341    O    0.50000   0.59700   0.42678   1.000
    O342    O    0.00000   0.40301   0.57321   1.000
    O343    O    0.50000   0.40301   0.57321   1.000
    O344    O    0.25000   0.07323   0.90299   1.000
    O345    O    0.75000   0.07323   0.90299   1.000
    O346    O    0.25000   0.92678   0.09000   1.000
    O347    O    0.75000   0.92678   0.09000   1.000
    O348    O    0.25000   0.90302   0.92680   1.000
    O349    O    0.75000   0.90302   0.92680   1.000
    O350    O    0.25000   0.09699   0.07319   1.000
    O351    O    0.75000   0.09699   0.07319   1.000
loop_
    _geom_bond_atom_site_label_1
    _geom_bond_atom_site_label_2
    _geom_bond_distance
    _geom_bond_site_symmetry_2
    _ccdc_geom_bond_type
    C112   O254      1.27145      .   S
    C112   C110      1.49238      .   S
    C112   O256      1.28288  1_554   S
    C113   O255      1.27145      .   S
    C113   C111      1.49238      .   S
    C113   O257      1.28288  1_554   S
    C167   O309      1.27138      .   S
    C167   C165      1.49227      .   S
    C167   O311      1.28307  1_554   S
    C166   O308      1.27138      .   S
    C166   C164      1.49227      .   S
    C166   O310      1.28373  1_554   S
    C207   C164      1.40046      .   S
    C207   C111      1.40051      .   S
    C207   H75       1.08817  1_554   S
    C206   C165      1.40044      .   S
    C206   C110      1.40049  1_655   S
    C206   H74       1.08816  1_554   S
    H92    O350      0.99469      .   S
    H93    O351      0.99469      .   S
    O309   Zn25      2.02793      .   S
    O308   Zn24      2.02793      .   S
    O254   Zn10      2.02843      .   S
    O255   Zn11      2.02842      .   S
    C164   C162      1.39916      .   S
    C165   C163      1.39916      .   S
    C111   C109      1.40041      .   S
    C110   C108      1.40041      .   S
    H78    C212      1.08832  1_554   S
    H79    C213      1.08832  1_554   S
    O350   Zn28      1.95513      .   S
    O351   Zn29      1.95513      .   S
    O263   Zn15      1.96947      .   S
    O263   C119      1.28373  1_554   S
    O262   Zn14      1.96948      .   S
    O262   C118      1.28372  1_554   S
    O305   Zn29      1.96916      .   S
    O305   C161      1.28321  1_554   S
    O304   Zn28      1.96916      .   S
    O304   C160      1.28321  1_554   S
    O346   H84       1.00282      .   S
    O346   Zn24      2.00267      .   S
    O347   H85       1.00282      .   S
    O347   Zn25      2.00267      .   S
    Zn28   O296      2.02842      .   S
    Zn28   O324      1.98825      .   S
    Zn29   O297      2.02865      .   S
    Zn29   O325      1.98826      .   S
    Zn15   O243      2.02873      .   S
    Zn15   O283      1.98822      .   S
    Zn14   O242      2.02875      .   S
    Zn14   O282      1.98820      .   S
    C163   H55       1.08865      .   S
    C163   C204      1.39988      .   S
    C162   H54       1.08847      .   S
    C162   C205      1.39992      .   S
    C109   H37       1.08800      .   S
    C109   C205      1.39926      .   S
    C108   H36       1.08798      .   S
    C108   C204      1.39928  1_455   S
    Zn25   O299      1.96922      .   S
    Zn25   O313      1.98879      .   S
    Zn24   O298      1.96921      .   S
    Zn24   O312      1.98879      .   S
    Zn11   O245      1.96897      .   S
    Zn11   O271      1.98849      .   S
    Zn10   O244      1.96899      .   S
    Zn10   O270      1.98847      .   S
    C205   C209      1.49982      .   S
    C204   C208      1.49982      .   S
    H67    C195      1.08797  1_565   S
    H66    C194      1.08799  1_565   S
    O296   C154      1.27130      .   S
    O242   C100      1.27125      .   S
    O243   C101      1.27125      .   S
    O297   C155      1.27124      .   S
    O298   C154      1.28299  1_565   S
    O299   C155      1.28298  1_565   S
    O244   C100      1.28298  1_565   S
    O245   C101      1.28298  1_565   S
    C101   C99       1.49210      .   S
    C100   C98       1.49208      .   S
    C155   C153      1.49213      .   S
    C154   C152      1.49211      .   S
    C194   C153      1.40039  1_455   S
    C194   C98       1.40044      .   S
    C195   C152      1.40043      .   S
    C195   C99       1.40043      .   S
    C153   C151      1.40046      .   S
    C152   C150      1.40046      .   S
    C99    C97       1.40029      .   S
    C98    C96       1.40030      .   S
    O313   C227      1.27538      .   S
    O312   C226      1.27531      .   S
    O270   C226      1.27530      .   S
    O271   C227      1.27537      .   S
    O283   C239      1.27534      .   S
    O324   C238      1.27538      .   S
    O282   C238      1.27534      .   S
    O325   C239      1.27536      .   S
    C226   C222      1.50008      .   S
    C227   C223      1.49991      .   S
    C96    H32       1.08803      .   S
    C96    C192      1.39927      .   S
    C97    H33       1.08804      .   S
    C97    C193      1.39928      .   S
    C150   H50       1.08795      .   S
    C150   C193      1.39921      .   S
    C151   H51       1.08795      .   S
    C151   C192      1.39917  1_655   S
    C209   O253      1.27539      .   S
    C209   O306      1.27538      .   S
    C208   O307      1.27535      .   S
    C208   O252      1.27539  1_655   S
    C192   C196      1.49988      .   S
    C193   C197      1.49988      .   S
    C223   C169      1.39924      .   S
    C223   C127      1.39925      .   S
    C222   C168      1.39924      .   S
    C222   C126      1.39923      .   S
    C238   C234      1.49990      .   S
    C239   C235      1.49990      .   S
    H56    C168      1.08797      .   S
    H57    C169      1.08797      .   S
    H42    C126      1.08799      .   S
    H43    C127      1.08796      .   S
    C169   C171      1.40046      .   S
    C168   C170      1.40044      .   S
    C126   C128      1.40044      .   S
    C127   C129      1.40044      .   S
    C196   O240      1.27536      .   S
    C196   O295      1.27530  1_455   S
    C197   O241      1.27536      .   S
    C197   O294      1.27534      .   S
    O253   Zn5       1.98844      .   S
    O306   Zn22      1.98839      .   S
    O307   Zn23      1.98840      .   S
    O252   Zn4       1.98844      .   S
    O240   Zn0       1.98840      .   S
    O241   Zn1       1.98840      .   S
    O295   Zn19      1.98802      .   S
    O294   Zn18      1.98802      .   S
    C129   C225      1.40044      .   S
    C129   C131      1.49219      .   S
    C171   C225      1.40044      .   S
    C171   C173      1.49218      .   S
    C128   C224      1.40045      .   S
    C128   C130      1.49217      .   S
    C170   C224      1.40044      .   S
    C170   C172      1.49219      .   S
    C225   H87       1.08817      .   S
    C224   H86       1.08819      .   S
    C173   O317      1.28319      .   S
    C173   O315      1.27123      .   S
    C172   O316      1.28319      .   S
    C172   O314      1.27121      .   S
    C131   O275      1.28316      .   S
    C131   O273      1.27123      .   S
    C130   O274      1.28316      .   S
    C130   O272      1.27121      .   S
    O274   Zn0       1.96911      .   S
    O275   Zn1       1.96911      .   S
    O316   Zn18      1.96880      .   S
    O317   Zn19      1.96880      .   S
    O272   Zn4       2.02880      .   S
    O273   Zn5       2.02864      .   S
    O314   Zn22      2.02865      .   S
    O315   Zn23      2.02865      .   S
    C234   C180      1.39918      .   S
    C234   C138      1.39922      .   S
    C235   C139      1.39920      .   S
    C235   C181      1.39920      .   S
    H46    C138      1.08802      .   S
    H47    C139      1.08802      .   S
    H60    C180      1.08796      .   S
    H61    C181      1.08796      .   S
    Zn19   O327      2.02909      .   S
    Zn18   O326      2.02910      .   S
    Zn1    O337      1.95515      .   S
    Zn1    O285      2.02849      .   S
    Zn0    O336      1.95515      .   S
    Zn0    O284      2.02848      .   S
    C139   C141      1.40036      .   S
    C181   C183      1.40034      .   S
    C180   C182      1.40034      .   S
    C138   C140      1.40036      .   S
    Zn4    O280      1.96903      .   S
    Zn5    O281      1.96902      .   S
    Zn22   O334      1.96902      .   S
    Zn22   O341      1.95518      .   S
    Zn23   O335      1.96903      .   S
    Zn23   O340      1.95513      .   S
    H65    O337      0.99467      .   S
    H64    O336      0.99467      .   S
    O335   C191      1.28332      .   S
    O334   C190      1.28331      .   S
    O280   C136      1.28287      .   S
    O281   C137      1.28286      .   S
    O341   H73       0.99468      .   S
    O340   H72       0.99468      .   S
    H91    C231      1.08891      .   S
    H90    C230      1.08890      .   S
    C140   C236      1.40044      .   S
    C140   C142      1.49212      .   S
    C182   C236      1.40045      .   S
    C182   C184      1.49211      .   S
    C183   C237      1.40045      .   S
    C183   C185      1.49210      .   S
    C141   C237      1.40044      .   S
    C141   C143      1.49212      .   S
    O326   C184      1.27136      .   S
    O327   C185      1.27136      .   S
    O285   C143      1.27126      .   S
    O284   C142      1.27127      .   S
    C237   H95       1.08768      .   S
    C236   H94       1.08768      .   S
    C143   O287      1.28317      .   S
    C142   O286      1.28318      .   S
    C185   O329      1.28266      .   S
    C184   O328      1.28265      .   S
    C137   O279      1.27150      .   S
    C137   C135      1.49226      .   S
    C136   O278      1.27147      .   S
    C136   C134      1.49228      .   S
    C191   O333      1.27119      .   S
    C191   C189      1.49206      .   S
    C190   O332      1.27118      .   S
    C190   C188      1.49207      .   S
    C231   C189      1.40045      .   S
    C231   C135      1.40044      .   S
    C230   C188      1.40043      .   S
    C230   C134      1.40044      .   S
    H76    O342      0.99502      .   S
    H77    O343      0.99502      .   S
    O332   Zn16      2.02865      .   S
    O333   Zn17      2.02864      .   S
    O279   Zn3       2.02798      .   S
    O278   Zn2       2.02797      .   S
    C188   C186      1.40048      .   S
    C189   C187      1.40049      .   S
    C135   C133      1.40048      .   S
    C134   C132      1.40049      .   S
    O343   Zn7       1.95517      .   S
    O342   Zn21      1.95515  1_455   S
    O329   Zn21      1.96930      .   S
    O328   Zn20      1.96929      .   S
    O286   Zn6       1.96908      .   S
    O287   Zn7       1.96907      .   S
    O339   H69       0.99466      .   S
    O339   Zn3       1.95499      .   S
    O338   H68       0.99466      .   S
    O338   Zn2       1.95499  1_655   S
    Zn6    O266      2.02826      .   S
    Zn6    O258      1.98841      .   S
    Zn7    O267      2.02865      .   S
    Zn7    O259      1.98841      .   S
    Zn21   O321      2.02865      .   S
    Zn21   O301      1.98846      .   S
    Zn20   O320      2.02864      .   S
    Zn20   O300      1.98846      .   S
    C132   H44       1.08794      .   S
    C132   C228      1.39921      .   S
    C187   H63       1.08743      .   S
    C187   C229      1.39920      .   S
    C186   H62       1.08791      .   S
    C186   C228      1.39920      .   S
    C133   H45       1.08796      .   S
    C133   C229      1.39919      .   S
    Zn3    O269      1.96879      .   S
    Zn3    O247      1.98883      .   S
    Zn2    O268      1.96931      .   S
    Zn2    O246      1.98884      .   S
    Zn17   O323      1.96908      .   S
    Zn17   O289      1.98836      .   S
    Zn16   O322      1.96908      .   S
    Zn16   O288      1.98836      .   S
    C229   C233      1.49982      .   S
    C228   C232      1.49980      .   S
    H83    C219      1.08817      .   S
    H82    C218      1.08817      .   S
    O266   C124      1.27133      .   S
    O267   C125      1.27123      .   S
    O320   C178      1.27124      .   S
    O321   C179      1.27124      .   S
    O269   C125      1.28330      .   S
    O322   C178      1.28316      .   S
    O323   C179      1.28316      .   S
    O268   C124      1.28318      .   S
    C178   C176      1.49217      .   S
    C179   C177      1.49215      .   S
    C124   C122      1.49216      .   S
    C125   C123      1.49216      .   S
    C219   C177      1.40046      .   S
    C219   C123      1.40044      .   S
    C218   C122      1.40046      .   S
    C218   C176      1.40044      .   S
    C122   C120      1.40046      .   S
    C176   C174      1.40044      .   S
    C177   C175      1.40044      .   S
    C123   C121      1.40048      .   S
    O288   C203      1.27538      .   S
    O289   C202      1.27534      .   S
    O246   C202      1.27533  1_455   S
    O247   C203      1.27535      .   S
    O259   C215      1.27537      .   S
    O258   C214      1.27539      .   S
    O300   C215      1.27539      .   S
    O301   C214      1.27534  1_655   S
    C202   C198      1.49985      .   S
    C203   C199      1.49985      .   S
    C120   H40       1.08797      .   S
    C120   C216      1.39901      .   S
    C175   H59       1.08798      .   S
    C175   C217      1.39900      .   S
    C174   H58       1.08798      .   S
    C174   C216      1.39898      .   S
    C121   H41       1.08797      .   S
    C121   C217      1.39898      .   S
    C232   O330      1.27532      .   S
    C232   O276      1.27533      .   S
    C233   O277      1.27532      .   S
    C233   O331      1.27532      .   S
    C216   C220      1.50050      .   S
    C217   C221      1.50050      .   S
    C199   C144      1.39923      .   S
    C199   C103      1.39923      .   S
    C198   C145      1.39919      .   S
    C198   C102      1.39923  1_655   S
    C215   C211      1.49983      .   S
    C214   C210      1.49984      .   S
    H49    C145      1.08799      .   S
    H48    C144      1.08797      .   S
    H34    C102      1.08799      .   S
    H35    C103      1.08798      .   S
    C144   C146      1.40041      .   S
    C145   C147      1.40041      .   S
    C103   C105      1.40042      .   S
    C102   C104      1.40041      .   S
    C221   O319      1.27533      .   S
    C221   O265      1.27535      .   S
    C220   O264      1.27536      .   S
    C220   O318      1.27533      .   S
    O330   Zn30      1.98827      .   S
    O277   Zn13      1.98835      .   S
    O276   Zn12      1.98835      .   S
    O331   Zn31      1.98828      .   S
    O264   Zn8       1.98850      .   S
    O318   Zn26      1.98857      .   S
    O319   Zn27      1.98857      .   S
    O265   Zn9       1.98851      .   S
    C146   C201      1.40043      .   S
    C146   C148      1.49206      .   S
    C147   C200      1.40039      .   S
    C147   C149      1.49206      .   S
    C104   C200      1.40044  1_455   S
    C104   C106      1.49213      .   S
    C105   C201      1.40043      .   S
    C105   C107      1.49210      .   S
    C201   H71       1.08797  1_565   S
    C200   H70       1.08797  1_565   S
    C107   O251      1.28294  1_565   S
    C107   O249      1.27124      .   S
    C106   O250      1.28294  1_565   S
    C106   O248      1.27122      .   S
    C149   O293      1.28296  1_565   S
    C149   O291      1.27126      .   S
    C148   O292      1.28296  1_565   S
    C148   O290      1.27126      .   S
    O251   Zn9       1.96922      .   S
    O250   Zn8       1.96922      .   S
    O293   Zn27      1.96901      .   S
    O292   Zn26      1.96903      .   S
    O249   Zn13      2.02871      .   S
    O248   Zn12      2.02871      .   S
    O291   Zn31      2.02877      .   S
    O290   Zn30      2.02875      .   S
    C210   C157      1.39924  1_455   S
    C210   C114      1.39920      .   S
    C211   C156      1.39926      .   S
    C211   C115      1.39922      .   S
    H52    C156      1.08800      .   S
    H53    C157      1.08800      .   S
    H39    C115      1.08793      .   S
    H38    C114      1.08793      .   S
    Zn26   O302      2.02844      .   S
    Zn27   O345      1.95522      .   S
    Zn27   O303      2.02844      .   S
    Zn9    O261      2.02847      .   S
    Zn8    O344      1.95521      .   S
    Zn8    O260      2.02848      .   S
    C157   C159      1.40040      .   S
    C156   C158      1.40040      .   S
    C114   C116      1.40057      .   S
    C115   C117      1.40058      .   S
    Zn31   O311      1.96914      .   S
    Zn30   O310      1.96890      .   S
    Zn12   O256      1.96912      .   S
    Zn12   O348      1.95513      .   S
    Zn13   O257      1.96911      .   S
    Zn13   O349      1.95511      .   S
    H80    O344      0.99464      .   S
    H81    O345      0.99464      .   S
    O349   H89       0.99469      .   S
    O348   H88       0.99469      .   S
    C158   C213      1.40043      .   S
    C158   C160      1.49214      .   S
    C159   C212      1.40039  1_655   S
    C159   C161      1.49216      .   S
    C117   C213      1.40040      .   S
    C117   C119      1.49155      .   S
    C116   C212      1.40041      .   S
    C116   C118      1.49156      .   S
    O302   C160      1.27121      .   S
    O303   C161      1.27119      .   S
    O260   C118      1.27063      .   S
    O261   C119      1.27063      .   S
    O336   Zn19      1.95553  1_455   S
    O337   Zn18      1.95557      .   S
    O338   Zn17      1.95512      .   S
    O339   Zn16      1.95516      .   S
    O340   Zn4       1.95519  1_655   S
    O341   Zn5       1.95519      .   S
    O342   Zn6       1.95517      .   S
    O343   Zn20      1.95519      .   S
    O344   Zn26      1.95522      .   S
    O345   Zn9       1.95523      .   S
    O346   Zn10      2.00293      .   S
    O347   Zn11      2.00295      .   S
    O348   Zn30      1.95520      .   S
    O349   Zn31      1.95522      .   S
    O350   Zn14      1.95521      .   S
    O351   Zn15      1.95522      .   S
