# CIF file generated by openbabel 2.4.90, see http://openbabel.sf.net
data_I
_chemical_name_common 'VESTA_phase_1'
_cell_length_a 13.183
_cell_length_b 13.173
_cell_length_c 13.98
_cell_angle_alpha 105.565
_cell_angle_beta 105.292
_cell_angle_gamma 93.379
_space_group_name_H-M_alt 'P 1'
_space_group_name_Hall 'P 1'
loop_
    _symmetry_equiv_pos_as_xyz
    x,y,z
loop_
    _atom_site_label
    _atom_site_type_symbol
    _atom_site_fract_x
    _atom_site_fract_y
    _atom_site_fract_z
    _atom_site_occupancy
    Zn0     Zn   0.18164   0.86690   0.86240   1.000
    Zn1     Zn   0.13325   0.81813   0.63762   1.000
    Zn2     Zn   0.81838   0.13312   0.13762   1.000
    Zn3     Zn   0.86678   0.18189   0.36240   1.000
    H4      H    0.52567   0.90090   0.94753   1.000
    H5      H    0.71663   0.89792   0.96197   1.000
    H6      H    0.44866   0.82347   0.61565   1.000
    H7      H    0.86025   0.86438   0.87487   1.000
    H8      H    0.03843   0.92167   0.98494   1.000
    H9      H    0.00831   0.91283   0.15040   1.000
    H10     H    0.31351   0.80182   0.22361   1.000
    H11     H    0.40353   0.88502   0.04369   1.000
    H12     H    0.41530   0.78303   0.10640   1.000
    H13     H    0.34181   0.75400   0.97230   1.000
    H14     H    0.78578   0.80431   0.54475   1.000
    H15     H    0.59435   0.80646   0.53069   1.000
    H16     H    0.09820   0.47236   0.55163   1.000
    H17     H    0.10134   0.28139   0.53790   1.000
    H18     H    0.17609   0.55235   0.88374   1.000
    H19     H    0.13555   0.13864   0.62566   1.000
    H20     H    0.07786   0.96110   0.51567   1.000
    H21     H    0.08623   0.99102   0.34992   1.000
    H22     H    0.19755   0.68542   0.27523   1.000
    H23     H    0.11524   0.59538   0.45548   1.000
    H24     H    0.21712   0.58384   0.39237   1.000
    H25     H    0.24582   0.65769   0.52656   1.000
    H26     H    0.19598   0.21598   0.95600   1.000
    H27     H    0.19344   0.40749   0.96942   1.000
    H28     H    0.47436   0.09913   0.05250   1.000
    H29     H    0.28340   0.10210   0.03806   1.000
    H30     H    0.55137   0.17655   0.38438   1.000
    H31     H    0.13978   0.13564   0.12516   1.000
    H32     H    0.96160   0.07835   0.01509   1.000
    H33     H    0.99172   0.08719   0.84956   1.000
    H34     H    0.68652   0.19820   0.77641   1.000
    H35     H    0.59650   0.11500   0.95633   1.000
    H36     H    0.58472   0.21698   0.89362   1.000
    H37     H    0.65822   0.24602   0.02765   1.000
    H38     H    0.21425   0.19571   0.45528   1.000
    H39     H    0.40568   0.19356   0.46933   1.000
    H40     H    0.90182   0.52767   0.44839   1.000
    H41     H    0.89869   0.71864   0.46212   1.000
    H42     H    0.82395   0.44767   0.11628   1.000
    H43     H    0.86448   0.86138   0.37436   1.000
    H44     H    0.92217   0.03893   0.48435   1.000
    H45     H    0.91380   0.00900   0.65010   1.000
    H46     H    0.80249   0.31460   0.72479   1.000
    H47     H    0.88479   0.40465   0.54455   1.000
    H48     H    0.78292   0.41619   0.60765   1.000
    H49     H    0.75421   0.34234   0.47347   1.000
    H50     H    0.80406   0.78405   0.04395   1.000
    H51     H    0.80660   0.59254   0.03060   1.000
    C52     C    0.35943   0.85628   0.77102   1.000
    C53     C    0.47561   0.86031   0.77965   1.000
    C54     C    0.55229   0.88275   0.87820   1.000
    C55     C    0.65843   0.88073   0.88592   1.000
    C56     C    0.50824   0.83996   0.69070   1.000
    C57     C    0.69366   0.85789   0.79559   1.000
    C58     C    0.80169   0.85287   0.80014   1.000
    C59     C    0.09809   0.89735   0.04146   1.000
    C60     C    0.08158   0.89125   0.13378   1.000
    C61     C    0.15869   0.85387   0.20093   1.000
    C62     C    0.25018   0.82834   0.17220   1.000
    C63     C    0.26330   0.83820   0.07912   1.000
    C64     C    0.36173   0.81308   0.04914   1.000
    C65     C    0.83476   0.83420   0.71146   1.000
    C66     C    0.95053   0.83433   0.71913   1.000
    C67     C    0.75866   0.81844   0.61365   1.000
    C68     C    0.65262   0.82009   0.60621   1.000
    C69     C    0.61684   0.83950   0.69605   1.000
    C70     C    0.14330   0.64017   0.72810   1.000
    C71     C    0.13912   0.52391   0.71960   1.000
    C72     C    0.11651   0.44641   0.62118   1.000
    C73     C    0.11865   0.34025   0.61385   1.000
    C74     C    0.15953   0.49207   0.80879   1.000
    C75     C    0.14173   0.30586   0.70445   1.000
    C76     C    0.14703   0.19787   0.70028   1.000
    C77     C    0.10216   0.90133   0.45874   1.000
    C78     C    0.10798   0.91772   0.36634   1.000
    C79     C    0.14531   0.84044   0.29860   1.000
    C80     C    0.17105   0.74889   0.32697   1.000
    C81     C    0.16150   0.73590   0.42023   1.000
    C82     C    0.18691   0.63746   0.44988   1.000
    C83     C    0.16588   0.16555   0.78919   1.000
    C84     C    0.16588   0.04969   0.78157   1.000
    C85     C    0.18169   0.24246   0.88694   1.000
    C86     C    0.17979   0.34852   0.89401   1.000
    C87     C    0.16017   0.38349   0.80389   1.000
    C88     C    0.64060   0.14375   0.22900   1.000
    C89     C    0.52442   0.13971   0.22037   1.000
    C90     C    0.44773   0.11728   0.12182   1.000
    C91     C    0.34160   0.11930   0.11411   1.000
    C92     C    0.49179   0.16006   0.30929   1.000
    C93     C    0.30636   0.14213   0.20444   1.000
    C94     C    0.19834   0.14715   0.19988   1.000
    C95     C    0.90194   0.10267   0.95856   1.000
    C96     C    0.91845   0.10877   0.86624   1.000
    C97     C    0.84135   0.14615   0.79910   1.000
    C98     C    0.74985   0.17168   0.82770   1.000
    C99     C    0.73673   0.16183   0.92090   1.000
    C100    C    0.63830   0.18694   0.95088   1.000
    C101    C    0.16526   0.16582   0.28850   1.000
    C102    C    0.04950   0.16569   0.28000   1.000
    C103    C    0.24136   0.18158   0.38637   1.000
    C104    C    0.34740   0.17993   0.39381   1.000
    C105    C    0.38318   0.16053   0.30398   1.000
    C106    C    0.85672   0.35985   0.27192   1.000
    C107    C    0.86092   0.47611   0.28040   1.000
    C108    C    0.88352   0.55361   0.37884   1.000
    C109    C    0.88138   0.65978   0.38617   1.000
    C110    C    0.84050   0.50795   0.19120   1.000
    C111    C    0.85830   0.69416   0.29557   1.000
    C112    C    0.85300   0.80215   0.29974   1.000
    C113    C    0.89787   0.09870   0.54128   1.000
    C114    C    0.89206   0.08230   0.63369   1.000
    C115    C    0.85472   0.15958   0.70134   1.000
    C116    C    0.82898   0.25113   0.67305   1.000
    C117    C    0.83853   0.26413   0.57979   1.000
    C118    C    0.81312   0.36257   0.55014   1.000
    C119    C    0.83415   0.83447   0.21083   1.000
    C120    C    0.83415   0.95033   0.21846   1.000
    C121    C    0.81835   0.75757   0.11308   1.000
    C122    C    0.82024   0.65150   0.10602   1.000
    C123    C    0.83986   0.61653   0.19613   1.000
    N124    N    0.18598   0.87161   0.01361   1.000
    N125    N    0.12820   0.81343   0.48625   1.000
    N126    N    0.81405   0.12841   0.98640   1.000
    N127    N    0.87183   0.18659   0.51377   1.000
    O128    O    0.33420   0.89427   0.85424   1.000
    O129    O    0.29478   0.81402   0.68098   1.000
    O130    O    0.97756   0.83554   0.63781   1.000
    O131    O    0.01353   0.83548   0.80574   1.000
    O132    O    0.10552   0.66514   0.64499   1.000
    O133    O    0.18565   0.70521   0.81807   1.000
    O134    O    0.16456   0.02287   0.86285   1.000
    O135    O    0.16475   0.98633   0.69479   1.000
    O136    O    0.66583   0.10576   0.14579   1.000
    O137    O    0.70524   0.18601   0.31904   1.000
    O138    O    0.02247   0.16449   0.36221   1.000
    O139    O    0.98650   0.16455   0.19429   1.000
    O140    O    0.89451   0.33488   0.35500   1.000
    O141    O    0.81438   0.29482   0.18195   1.000
    O142    O    0.83547   0.97715   0.13717   1.000
    O143    O    0.83527   0.01369   0.30523   1.000
loop_
    _geom_bond_atom_site_label_1
    _geom_bond_atom_site_label_2
    _geom_bond_distance
    _geom_bond_site_symmetry_2
    _ccdc_geom_bond_type
    N124   C59       1.34997      .   S
    N124   C63       1.35960      .   S
    N124   Zn0       2.08357  1_554   S
    H32    C95       1.08783  1_554   S
    H37    C100      1.09799  1_554   S
    H51    C122      1.09150      .   S
    H29    C91       1.09101      .   S
    C59    C60       1.38613      .   S
    C59    H8        1.08776  1_554   S
    H11    C64       1.09850      .   S
    H50    C121      1.08802      .   S
    C64    C63       1.49394      .   S
    C64    H12       1.09594      .   S
    C64    H13       1.09867  1_554   S
    H28    C90       1.08831      .   S
    C63    C62       1.39530      .   S
    C122   C121      1.37621      .   S
    C122   C123      1.42115      .   S
    C121   C119      1.42095      .   S
    C91    C90       1.37711      .   S
    C91    C93       1.42229      .   S
    H42    C110      1.08986      .   S
    C90    C89       1.42092      .   S
    H31    C94       1.08902      .   S
    C60    H9        1.08768      .   S
    C60    C61       1.40026      .   S
    O142   Zn2       2.07859  1_565   S
    O142   C120      1.28129      .   S
    Zn2    O136      2.06046      .   S
    Zn2    O141      2.06054      .   S
    Zn2    O139      2.12146      .   S
    Zn2    N126      2.08371  1_554   S
    O136   C88       1.27500      .   S
    C62    C61       1.40005      .   S
    C62    H10       1.09003      .   S
    O141   C106      1.27380      .   S
    C110   C123      1.41404      .   S
    C110   C107      1.38577      .   S
    O139   C102      1.26082  1_655   S
    C123   C111      1.43769      .   S
    C94    C93       1.41495      .   S
    C94    C101      1.38547      .   S
    C61    C79       1.47641      .   S
    C93    C105      1.43788      .   S
    C119   C120      1.50119      .   S
    C119   C112      1.38617      .   S
    C120   O143      1.27045  1_565   S
    C89    C88       1.50089      .   S
    C89    C92       1.38529      .   S
    C88    O137      1.27390      .   S
    C106   C107      1.50056      .   S
    C106   O140      1.27456      .   S
    H22    C80       1.08966      .   S
    C102   C101      1.49904      .   S
    C102   O138      1.29355      .   S
    C107   C108      1.42083      .   S
    C101   C103      1.42149      .   S
    C111   C112      1.41466      .   S
    C111   C109      1.42229      .   S
    C79    C80       1.40028      .   S
    C79    C78       1.40102      .   S
    C112   H43       1.08900      .   S
    C105   C92       1.41441      .   S
    C105   C104      1.42102      .   S
    O143   Zn3       2.11816      .   S
    C92    H30       1.09028      .   S
    O137   Zn3       2.06292      .   S
    C80    C81       1.39602      .   S
    H21    C78       1.08822      .   S
    O140   Zn3       2.06175      .   S
    O138   Zn3       2.07921  1_455   S
    Zn3    N127      2.08358      .   S
    C78    C77       1.38604      .   S
    C108   C109      1.37708      .   S
    C108   H40       1.08844      .   S
    C109   H41       1.09095      .   S
    C103   C104      1.37605      .   S
    C103   H38       1.08802      .   S
    H24    C82       1.09594      .   S
    C104   H39       1.09145      .   S
    C81    C82       1.49398      .   S
    C81    N125      1.35960      .   S
    C82    H23       1.09855      .   S
    C82    H25       1.09838      .   S
    C77    N125      1.34996      .   S
    C77    H20       1.08810      .   S
    H49    C118      1.09828      .   S
    H44    C113      1.08809      .   S
    N125   Zn1       2.08358      .   S
    N127   C113      1.34995      .   S
    N127   C117      1.35960      .   S
    H15    C68       1.09146      .   S
    H17    C73       1.09095      .   S
    C113   C114      1.38617      .   S
    H47    C118      1.09849      .   S
    H14    C67       1.08789      .   S
    C118   C117      1.49398      .   S
    C118   H48       1.09593      .   S
    H16    C72       1.08844      .   S
    C117   C116      1.39600      .   S
    C68    C67       1.37605      .   S
    C68    C69       1.42115      .   S
    C67    C65       1.42087      .   S
    C73    C72       1.37709      .   S
    C73    C75       1.42228      .   S
    H6     C56       1.08988      .   S
    C72    C71       1.42063      .   S
    H19    C76       1.08900      .   S
    C114   H45       1.08817      .   S
    C114   C115      1.40028      .   S
    Zn1    O130      2.07921  1_455   S
    Zn1    O132      2.06161      .   S
    Zn1    O129      2.06293      .   S
    Zn1    O135      2.11816      .   S
    O130   C66       1.28157      .   S
    O132   C70       1.27492      .   S
    C116   C115      1.39980      .   S
    C116   H46       1.08966      .   S
    O129   C52       1.27391      .   S
    C56    C69       1.41430      .   S
    C56    C53       1.38568      .   S
    O135   C84       1.27054  1_565   S
    C69    C57       1.43788      .   S
    C76    C75       1.41466      .   S
    C76    C83       1.38617      .   S
    C115   C97       1.47766      .   S
    C75    C87       1.43769      .   S
    C65    C66       1.50128      .   S
    C65    C58       1.38625      .   S
    C66    O131      1.27056  1_655   S
    C71    C70       1.50050      .   S
    C71    C74       1.38563      .   S
    C70    O133      1.27381      .   S
    C52    C53       1.50088      .   S
    C52    O128      1.27513      .   S
    H34    C98       1.08912      .   S
    C53    C54       1.42092      .   S
    C84    C83       1.50120      .   S
    C84    O134      1.28118      .   S
    C83    C85       1.42094      .   S
    C57    C58       1.41498      .   S
    C57    C55       1.42229      .   S
    C97    C98       1.39925      .   S
    C97    C96       1.40017      .   S
    C58    H7        1.08913      .   S
    C87    C74       1.41413      .   S
    C87    C86       1.42128      .   S
    O131   Zn0       2.12145      .   S
    C74    H18       1.09015      .   S
    O133   Zn0       2.06054      .   S
    C98    C99       1.39696      .   S
    H33    C96       1.08799      .   S
    O128   Zn0       2.06042      .   S
    Zn0    O134      2.07859  1_565   S
    C96    C95       1.38613      .   S
    C54    C55       1.37709      .   S
    C54    H4        1.08844      .   S
    C55    H5        1.09101      .   S
    C85    C86       1.37618      .   S
    C85    H26       1.08710      .   S
    H36    C100      1.09591      .   S
    C86    H27       1.09140      .   S
    C99    C100      1.49395      .   S
    C99    N126      1.35951      .   S
    C100   H35       1.09848      .   S
    C95    N126      1.34993      .   S
    Zn0    Zn1       2.91639      .   S
    Zn2    Zn3       2.91639      .   S
