# CIF file generated by openbabel 2.4.90, see http://openbabel.sf.net
data_I
_chemical_name_common ''
_cell_length_a 15.945
_cell_length_b 19.362
_cell_length_c 21.91
_cell_angle_alpha 64.228
_cell_angle_beta 88.743
_cell_angle_gamma 76.382
_space_group_name_H-M_alt 'P 1'
_space_group_name_Hall 'P 1'
loop_
    _symmetry_equiv_pos_as_xyz
    x,y,z
loop_
    _atom_site_label
    _atom_site_type_symbol
    _atom_site_fract_x
    _atom_site_fract_y
    _atom_site_fract_z
    _atom_site_occupancy
    H0      H    0.04688   0.09723   0.27779   1.000
    H1      H    0.04452   0.09850   0.77840   1.000
    H2      H    0.04688   0.59724   0.27779   1.000
    H3      H    0.04453   0.59851   0.77840   1.000
    H4      H    0.54689   0.09724   0.27778   1.000
    H5      H    0.54454   0.09850   0.77840   1.000
    H6      H    0.54689   0.59725   0.27779   1.000
    H7      H    0.54453   0.59851   0.77840   1.000
    H8      H    0.34626   0.02045   0.21539   1.000
    H9      H    0.34391   0.02171   0.71601   1.000
    H10     H    0.34627   0.52045   0.21539   1.000
    H11     H    0.34391   0.52172   0.71600   1.000
    H12     H    0.84628   0.02045   0.21539   1.000
    H13     H    0.84392   0.02171   0.71600   1.000
    H14     H    0.84628   0.52046   0.21539   1.000
    H15     H    0.84393   0.52172   0.71600   1.000
    H16     H    0.20938   0.14220   0.13751   1.000
    H17     H    0.20795   0.14280   0.63880   1.000
    H18     H    0.20939   0.64221   0.13751   1.000
    H19     H    0.20793   0.64279   0.63887   1.000
    H20     H    0.70942   0.14222   0.13750   1.000
    H21     H    0.70796   0.14280   0.63886   1.000
    H22     H    0.70941   0.64223   0.13750   1.000
    H23     H    0.70796   0.64279   0.63887   1.000
    H24     H    0.13922   0.15791   0.03130   1.000
    H25     H    0.13923   0.15795   0.53237   1.000
    H26     H    0.13924   0.65792   0.03131   1.000
    H27     H    0.13921   0.65794   0.53230   1.000
    H28     H    0.63927   0.15794   0.03130   1.000
    H29     H    0.63924   0.15796   0.53237   1.000
    H30     H    0.63926   0.65794   0.03130   1.000
    H31     H    0.63923   0.65794   0.53238   1.000
    H32     H    0.14692   0.01530   0.40861   1.000
    H33     H    0.14605   0.01508   0.90924   1.000
    H34     H    0.14693   0.51531   0.40861   1.000
    H35     H    0.14604   0.51509   0.90924   1.000
    H36     H    0.64694   0.01530   0.40861   1.000
    H37     H    0.64606   0.01509   0.90924   1.000
    H38     H    0.64694   0.51531   0.40861   1.000
    H39     H    0.64606   0.51509   0.90924   1.000
    H40     H    0.99761   0.29600   0.16272   1.000
    H41     H    0.99499   0.29691   0.66237   1.000
    H42     H    0.99761   0.79599   0.16273   1.000
    H43     H    0.99499   0.79694   0.66236   1.000
    H44     H    0.49761   0.29597   0.16273   1.000
    H45     H    0.49500   0.29692   0.66237   1.000
    H46     H    0.49761   0.79598   0.16273   1.000
    H47     H    0.49501   0.79693   0.66237   1.000
    H48     H    0.33283   0.10146   0.47603   1.000
    H49     H    0.33136   0.10254   0.97578   1.000
    H50     H    0.33284   0.60146   0.47603   1.000
    H51     H    0.33136   0.60255   0.97570   1.000
    H52     H    0.83285   0.10145   0.47603   1.000
    H53     H    0.83137   0.10254   0.97578   1.000
    H54     H    0.83284   0.60147   0.47603   1.000
    H55     H    0.83137   0.60255   0.97570   1.000
    H56     H    0.41850   0.31996   0.05770   1.000
    H57     H    0.41730   0.32045   0.55692   1.000
    H58     H    0.41849   0.81997   0.05770   1.000
    H59     H    0.41731   0.82046   0.55692   1.000
    H60     H    0.91852   0.32000   0.05768   1.000
    H61     H    0.91732   0.32045   0.55690   1.000
    H62     H    0.91852   0.81998   0.05769   1.000
    H63     H    0.91732   0.82047   0.55690   1.000
    H64     H    0.45547   0.40148   0.22156   1.000
    H65     H    0.45313   0.40273   0.72219   1.000
    H66     H    0.45546   0.90149   0.22156   1.000
    H67     H    0.45313   0.90273   0.72219   1.000
    H68     H    0.95548   0.40148   0.22150   1.000
    H69     H    0.95315   0.40272   0.72210   1.000
    H70     H    0.95548   0.90149   0.22156   1.000
    H71     H    0.95314   0.90274   0.72219   1.000
    H72     H    0.15609   0.47825   0.28390   1.000
    H73     H    0.15373   0.47953   0.78458   1.000
    H74     H    0.15609   0.97825   0.28397   1.000
    H75     H    0.15373   0.97954   0.78450   1.000
    H76     H    0.65610   0.47825   0.28396   1.000
    H77     H    0.65374   0.47954   0.78457   1.000
    H78     H    0.65610   0.97826   0.28396   1.000
    H79     H    0.65375   0.97954   0.78457   1.000
    H80     H    0.29206   0.35720   0.36109   1.000
    H81     H    0.29062   0.35774   0.86247   1.000
    H82     H    0.29206   0.85719   0.36110   1.000
    H83     H    0.29061   0.85774   0.86247   1.000
    C84     C    0.91202   0.51231   0.73065   1.000
    C85     C    0.14453   0.18055   0.11760   1.000
    C86     C    0.14317   0.18107   0.61857   1.000
    C87     C    0.14454   0.68055   0.11760   1.000
    H88     H    0.79208   0.35720   0.36109   1.000
    H89     H    0.79061   0.35772   0.86240   1.000
    H90     H    0.79207   0.85719   0.36110   1.000
    H91     H    0.79063   0.85773   0.86248   1.000
    H92     H    0.36079   0.34206   0.46750   1.000
    H93     H    0.36077   0.34203   0.96867   1.000
    H94     H    0.36078   0.84204   0.46759   1.000
    H95     H    0.36076   0.84203   0.96867   1.000
    H96     H    0.86081   0.34206   0.46758   1.000
    H97     H    0.86076   0.34200   0.96869   1.000
    H98     H    0.86079   0.84204   0.46759   1.000
    H99     H    0.86077   0.84201   0.96868   1.000
    H100    H    0.35396   0.48488   0.09073   1.000
    H101    H    0.35308   0.48467   0.59136   1.000
    H102    H    0.35396   0.98488   0.09074   1.000
    H103    H    0.35307   0.98468   0.59136   1.000
    H104    H    0.85397   0.48488   0.09070   1.000
    H105    H    0.85309   0.48467   0.59136   1.000
    H106    H    0.85397   0.98489   0.09073   1.000
    H107    H    0.85309   0.98467   0.59136   1.000
    H108    H    0.50500   0.20305   0.33760   1.000
    H109    H    0.50241   0.20399   0.83724   1.000
    H110    H    0.50501   0.70306   0.33760   1.000
    H111    H    0.50241   0.70400   0.83720   1.000
    H112    H    0.00000   0.20305   0.33760   1.000
    H113    H    0.00000   0.20401   0.83722   1.000
    H114    H    0.00000   0.70307   0.33760   1.000
    H115    H    0.00000   0.70400   0.83723   1.000
    C116    C    0.26290   0.43396   0.06404   1.000
    C117    C    0.26158   0.43443   0.56429   1.000
    C118    C    0.26287   0.93398   0.06405   1.000
    C119    C    0.26155   0.93446   0.56430   1.000
    C120    C    0.76292   0.43396   0.06404   1.000
    H121    H    0.16864   0.39742   0.02420   1.000
    H122    H    0.16717   0.39851   0.52390   1.000
    H123    H    0.16864   0.89743   0.02420   1.000
    H124    H    0.16717   0.89852   0.52394   1.000
    H125    H    0.66866   0.39742   0.02420   1.000
    H126    H    0.66718   0.39851   0.52390   1.000
    H127    H    0.66866   0.89743   0.02419   1.000
    H128    H    0.66719   0.89852   0.52394   1.000
    H129    H    0.08270   0.17952   0.44305   1.000
    H130    H    0.08153   0.18003   0.94225   1.000
    H131    H    0.08270   0.67954   0.44304   1.000
    H132    H    0.08152   0.68001   0.94227   1.000
    H133    H    0.58271   0.17952   0.44305   1.000
    H134    H    0.58154   0.18000   0.94227   1.000
    H135    H    0.58271   0.67953   0.44305   1.000
    H136    H    0.58152   0.68000   0.94227   1.000
    C137    C    0.22872   0.13477   0.36643   1.000
    C138    C    0.22624   0.13569   0.86688   1.000
    C139    C    0.22874   0.63476   0.36643   1.000
    C140    C    0.22626   0.63569   0.86687   1.000
    C141    C    0.72874   0.13477   0.36643   1.000
    C142    C    0.72626   0.13568   0.86688   1.000
    C143    C    0.72874   0.63478   0.36643   1.000
    C144    C    0.72628   0.63568   0.86687   1.000
    C145    C    0.23845   0.06552   0.43568   1.000
    C146    C    0.23713   0.06599   0.93590   1.000
    C147    C    0.23843   0.56554   0.43569   1.000
    C148    C    0.23710   0.56601   0.93593   1.000
    C149    C    0.73847   0.06552   0.43568   1.000
    C150    C    0.73712   0.06600   0.93593   1.000
    C151    C    0.73846   0.56553   0.43568   1.000
    C152    C    0.73711   0.56601   0.93593   1.000
    C153    C    0.19182   0.00815   0.44890   1.000
    C154    C    0.19133   0.00802   0.94930   1.000
    C155    C    0.19184   0.50814   0.44894   1.000
    C156    C    0.19135   0.50802   0.94929   1.000
    C157    C    0.69184   0.00815   0.44890   1.000
    C158    C    0.69136   0.00802   0.94929   1.000
    C159    C    0.69184   0.50816   0.44894   1.000
    C160    C    0.69137   0.50802   0.94929   1.000
    C161    C    0.29665   0.05673   0.48729   1.000
    C162    C    0.29585   0.05732   0.98717   1.000
    C163    C    0.29668   0.55672   0.48728   1.000
    C164    C    0.29587   0.55732   0.98715   1.000
    C165    C    0.79667   0.05672   0.48729   1.000
    C166    C    0.79587   0.05731   0.98716   1.000
    C167    C    0.79667   0.55674   0.48720   1.000
    C168    C    0.79588   0.55732   0.98715   1.000
    C169    C    0.37339   0.13777   0.24243   1.000
    C170    C    0.37113   0.13898   0.74323   1.000
    C171    C    0.37339   0.63777   0.24244   1.000
    C172    C    0.37111   0.63900   0.74322   1.000
    C173    C    0.87341   0.13776   0.24245   1.000
    C174    C    0.87113   0.13899   0.74320   1.000
    C175    C    0.87340   0.63777   0.24244   1.000
    C176    C    0.87114   0.63899   0.74322   1.000
    C177    C    0.02709   0.05434   0.26545   1.000
    C178    C    0.02473   0.05563   0.76604   1.000
    C179    C    0.02709   0.55436   0.26544   1.000
    C180    C    0.02474   0.55563   0.76605   1.000
    C181    C    0.52710   0.05435   0.26543   1.000
    C182    C    0.52475   0.05562   0.76600   1.000
    C183    C    0.52711   0.55436   0.26544   1.000
    C184    C    0.52474   0.55564   0.76605   1.000
    C185    C    0.41434   0.01103   0.23004   1.000
    C186    C    0.41200   0.01229   0.73066   1.000
    C187    C    0.41435   0.51103   0.23005   1.000
    C188    C    0.41199   0.51231   0.73065   1.000
    C189    C    0.91436   0.01102   0.23005   1.000
    C190    C    0.91201   0.01230   0.73065   1.000
    C191    C    0.91436   0.51103   0.23000   1.000
    O192    O    0.89790   0.18610   0.75988   1.000
    O193    O    0.90007   0.68509   0.25890   1.000
    O194    O    0.89791   0.68611   0.75988   1.000
    O195    O    0.32947   0.35761   0.17772   1.000
    O196    O    0.32698   0.35830   0.67829   1.000
    O197    O    0.32947   0.85761   0.17772   1.000
    O198    O    0.32697   0.85832   0.67829   1.000
    O199    O    0.82949   0.35761   0.17772   1.000
    C200    C    0.14316   0.68107   0.61858   1.000
    C201    C    0.64456   0.18056   0.11767   1.000
    C202    C    0.64318   0.18108   0.61857   1.000
    C203    C    0.64455   0.68057   0.11760   1.000
    C204    C    0.64318   0.68107   0.61858   1.000
    C205    C    0.10444   0.19052   0.05783   1.000
    C206    C    0.10389   0.19076   0.55855   1.000
    C207    C    0.10445   0.69053   0.05783   1.000
    C208    C    0.10388   0.69075   0.55856   1.000
    C209    C    0.60447   0.19054   0.05782   1.000
    C210    C    0.60390   0.19076   0.55855   1.000
    C211    C    0.60446   0.69054   0.05782   1.000
    C212    C    0.60390   0.69075   0.55856   1.000
    C213    C    0.02181   0.24253   0.03264   1.000
    C214    C    0.02136   0.24271   0.53275   1.000
    C215    C    0.02181   0.74253   0.03264   1.000
    C216    C    0.02135   0.74272   0.53275   1.000
    C217    C    0.52183   0.24253   0.03264   1.000
    C218    C    0.52137   0.24272   0.53274   1.000
    C219    C    0.52182   0.74253   0.03264   1.000
    C220    C    0.52137   0.74271   0.53275   1.000
    C221    C    0.48279   0.27970   0.07242   1.000
    C222    C    0.48158   0.28017   0.57213   1.000
    C223    C    0.48278   0.77970   0.07242   1.000
    C224    C    0.48158   0.78017   0.57213   1.000
    C225    C    0.98281   0.27972   0.07241   1.000
    C226    C    0.98160   0.28016   0.57213   1.000
    C227    C    0.98281   0.77971   0.07242   1.000
    C228    C    0.98159   0.78018   0.57213   1.000
    C229    C    0.02671   0.26671   0.13197   1.000
    C230    C    0.02472   0.26745   0.63191   1.000
    C231    C    0.02671   0.76671   0.13198   1.000
    C232    C    0.02471   0.76747   0.63191   1.000
    C233    C    0.52672   0.26670   0.13198   1.000
    C234    C    0.52473   0.26745   0.63191   1.000
    C235    C    0.52672   0.76670   0.13198   1.000
    C236    C    0.52473   0.76746   0.63191   1.000
    C237    C    0.43965   0.06667   0.24562   1.000
    C238    C    0.43730   0.06792   0.74628   1.000
    C239    C    0.43966   0.56668   0.24562   1.000
    C240    C    0.43729   0.56793   0.74628   1.000
    C241    C    0.93967   0.06668   0.24561   1.000
    C242    C    0.93730   0.06792   0.74629   1.000
    C243    C    0.93967   0.56668   0.24562   1.000
    C244    C    0.93731   0.56793   0.74628   1.000
    C245    C    0.27374   0.36429   0.13310   1.000
    C246    C    0.27127   0.36521   0.63355   1.000
    C247    C    0.27376   0.86428   0.13309   1.000
    C248    C    0.27128   0.86521   0.63354   1.000
    C249    C    0.77375   0.36429   0.13310   1.000
    C250    C    0.77129   0.36521   0.63354   1.000
    C251    C    0.77376   0.86429   0.13310   1.000
    C252    C    0.77130   0.86521   0.63354   1.000
    C253    C    0.76157   0.43445   0.56400   1.000
    C254    C    0.76290   0.93397   0.06404   1.000
    C255    C    0.76157   0.93446   0.56430   1.000
    C256    C    0.30865   0.49195   0.05068   1.000
    C257    C    0.30817   0.49183   0.55103   1.000
    C258    C    0.30867   0.99194   0.05068   1.000
    C259    C    0.30818   0.99183   0.55103   1.000
    C260    C    0.80866   0.49196   0.05068   1.000
    C261    C    0.80819   0.49182   0.55103   1.000
    C262    C    0.80867   0.99196   0.05068   1.000
    C263    C    0.80820   0.99182   0.55103   1.000
    C264    C    0.20413   0.44266   0.01282   1.000
    C265    C    0.20333   0.44325   0.51269   1.000
    C266    C    0.20416   0.94265   0.01281   1.000
    C267    C    0.20334   0.94325   0.51260   1.000
    C268    C    0.70415   0.44266   0.01282   1.000
    C269    C    0.70336   0.44324   0.51269   1.000
    C270    C    0.70416   0.94266   0.01281   1.000
    C271    C    0.70337   0.94325   0.51268   1.000
    C272    C    0.12886   0.36098   0.25674   1.000
    C273    C    0.12661   0.36220   0.75754   1.000
    C274    C    0.12887   0.86099   0.25674   1.000
    C275    C    0.12660   0.86221   0.75754   1.000
    C276    C    0.62889   0.36098   0.25674   1.000
    C277    C    0.62662   0.36220   0.75754   1.000
    C278    C    0.62887   0.86098   0.25675   1.000
    C279    C    0.62663   0.86221   0.75753   1.000
    C280    C    0.47526   0.44435   0.23390   1.000
    C281    C    0.47291   0.44561   0.73453   1.000
    C282    C    0.47525   0.94436   0.23392   1.000
    C283    C    0.47292   0.94563   0.73453   1.000
    C284    C    0.97527   0.44435   0.23391   1.000
    C285    C    0.97293   0.44561   0.73453   1.000
    C286    C    0.97527   0.94436   0.23391   1.000
    C287    C    0.97292   0.94562   0.73453   1.000
    C288    C    0.08800   0.48766   0.26931   1.000
    C289    C    0.08565   0.48895   0.76992   1.000
    C290    C    0.08801   0.98768   0.26931   1.000
    C291    C    0.08564   0.98896   0.76993   1.000
    C292    C    0.58802   0.48766   0.26931   1.000
    C293    C    0.58566   0.48895   0.76992   1.000
    C294    C    0.58801   0.98767   0.26931   1.000
    C295    C    0.58567   0.98896   0.76991   1.000
    C296    C    0.35683   0.31892   0.38130   1.000
    C297    C    0.35547   0.31940   0.88230   1.000
    C298    C    0.35683   0.81892   0.38139   1.000
    C299    C    0.35547   0.81941   0.88231   1.000
    C300    C    0.85685   0.31892   0.38139   1.000
    C301    C    0.85547   0.31939   0.88231   1.000
    C302    C    0.85684   0.81892   0.38139   1.000
    C303    C    0.85548   0.81940   0.88231   1.000
    C304    C    0.39612   0.30924   0.44140   1.000
    C305    C    0.39557   0.30943   0.94210   1.000
    C306    C    0.39612   0.80924   0.44141   1.000
    C307    C    0.39556   0.80943   0.94215   1.000
    C308    C    0.89614   0.30924   0.44140   1.000
    C309    C    0.89556   0.30941   0.94215   1.000
    C310    C    0.89612   0.80924   0.44141   1.000
    C311    C    0.89557   0.80942   0.94215   1.000
    C312    C    0.47865   0.25728   0.46721   1.000
    C313    C    0.47821   0.25743   0.96733   1.000
    C314    C    0.47865   0.75728   0.46722   1.000
    C315    C    0.47820   0.75743   0.96733   1.000
    C316    C    0.97867   0.25728   0.46722   1.000
    C317    C    0.97821   0.25743   0.96733   1.000
    C318    C    0.97866   0.75728   0.46722   1.000
    C319    C    0.97821   0.75743   0.96734   1.000
    C320    C    0.01842   0.21981   0.42784   1.000
    C321    C    0.01723   0.22029   0.92754   1.000
    C322    C    0.01842   0.71983   0.42780   1.000
    C323    C    0.01723   0.72027   0.92755   1.000
    C324    C    0.51843   0.21982   0.42783   1.000
    C325    C    0.51724   0.22027   0.92755   1.000
    C326    C    0.51843   0.71982   0.42784   1.000
    C327    C    0.51723   0.72027   0.92755   1.000
    C328    C    0.47528   0.23253   0.36806   1.000
    C329    C    0.47331   0.23326   0.86799   1.000
    C330    C    0.47528   0.73253   0.36806   1.000
    C331    C    0.47330   0.73327   0.86799   1.000
    C332    C    0.97530   0.23252   0.36806   1.000
    C333    C    0.97332   0.23328   0.86798   1.000
    C334    C    0.97529   0.73254   0.36800   1.000
    C335    C    0.97332   0.73327   0.86799   1.000
    C336    C    0.06270   0.43205   0.25369   1.000
    C337    C    0.06035   0.43329   0.75435   1.000
    C338    C    0.06270   0.93205   0.25369   1.000
    C339    C    0.06034   0.93331   0.75434   1.000
    C340    C    0.56271   0.43205   0.25369   1.000
    C341    C    0.56036   0.43330   0.75435   1.000
    C342    C    0.56271   0.93206   0.25368   1.000
    C343    C    0.56036   0.93330   0.75436   1.000
    N344    N    0.10716   0.21864   0.15415   1.000
    N345    N    0.10511   0.21941   0.65468   1.000
    N346    N    0.10717   0.71864   0.15416   1.000
    N347    N    0.10510   0.71942   0.65468   1.000
    N348    N    0.60719   0.21864   0.15415   1.000
    N349    N    0.60511   0.21942   0.65467   1.000
    N350    N    0.60718   0.71864   0.15415   1.000
    N351    N    0.60512   0.71942   0.65468   1.000
    N352    N    0.39489   0.28057   0.34529   1.000
    N353    N    0.39284   0.28132   0.84582   1.000
    N354    N    0.39490   0.78057   0.34529   1.000
    N355    N    0.39284   0.78133   0.84582   1.000
    N356    N    0.89491   0.28057   0.34529   1.000
    N357    N    0.89285   0.28133   0.84582   1.000
    N358    N    0.89491   0.78057   0.34529   1.000
    N359    N    0.89286   0.78133   0.84582   1.000
    O360    O    0.17303   0.14167   0.32169   1.000
    O361    O    0.17053   0.14235   0.82226   1.000
    O362    O    0.17303   0.64168   0.32169   1.000
    O363    O    0.17052   0.64237   0.82226   1.000
    O364    O    0.67304   0.14167   0.32169   1.000
    O365    O    0.67053   0.14236   0.82220   1.000
    O366    O    0.67304   0.64168   0.32160   1.000
    O367    O    0.67054   0.64237   0.82220   1.000
    O368    O    0.27758   0.18082   0.35756   1.000
    O369    O    0.27432   0.18237   0.85803   1.000
    O370    O    0.27758   0.68083   0.35756   1.000
    O371    O    0.27431   0.68238   0.85803   1.000
    O372    O    0.77759   0.18082   0.35756   1.000
    O373    O    0.77433   0.18238   0.85803   1.000
    O374    O    0.77759   0.68083   0.35756   1.000
    O375    O    0.77433   0.68238   0.85803   1.000
    O376    O    0.29521   0.14505   0.22414   1.000
    O377    O    0.29291   0.14645   0.72480   1.000
    O378    O    0.29522   0.64505   0.22414   1.000
    O379    O    0.29289   0.64645   0.72488   1.000
    O380    O    0.79523   0.14505   0.22414   1.000
    O381    O    0.79291   0.14645   0.72488   1.000
    O382    O    0.79523   0.64506   0.22414   1.000
    O383    O    0.79292   0.64645   0.72488   1.000
    O384    O    0.40005   0.18508   0.25890   1.000
    O385    O    0.39790   0.18610   0.75988   1.000
    O386    O    0.40005   0.68509   0.25890   1.000
    O387    O    0.39788   0.68611   0.75988   1.000
    O388    O    0.90007   0.18508   0.25890   1.000
    O389    O    0.82699   0.35831   0.67829   1.000
    O390    O    0.82949   0.85762   0.17772   1.000
    O391    O    0.82699   0.85831   0.67829   1.000
    O392    O    0.22568   0.31759   0.14194   1.000
    O393    O    0.22244   0.31914   0.64242   1.000
    O394    O    0.22568   0.81760   0.14194   1.000
    O395    O    0.22243   0.81915   0.64242   1.000
    O396    O    0.72570   0.31759   0.14194   1.000
    O397    O    0.72245   0.31914   0.64242   1.000
    O398    O    0.72569   0.81760   0.14194   1.000
    O399    O    0.72245   0.81915   0.64242   1.000
    O400    O    0.20708   0.35352   0.27509   1.000
    O401    O    0.20479   0.35492   0.77584   1.000
    O402    O    0.20709   0.85352   0.27509   1.000
    O403    O    0.20478   0.85493   0.77580   1.000
    O404    O    0.70710   0.35352   0.27509   1.000
    O405    O    0.70480   0.35492   0.77580   1.000
    O406    O    0.70710   0.85352   0.27500   1.000
    O407    O    0.70480   0.85492   0.77584   1.000
    O408    O    0.10209   0.31386   0.24000   1.000
    O409    O    0.09995   0.31489   0.74107   1.000
    O410    O    0.10210   0.81387   0.24009   1.000
    O411    O    0.09995   0.81490   0.74107   1.000
    O412    O    0.60211   0.31386   0.24009   1.000
    O413    O    0.59996   0.31489   0.74107   1.000
    O414    O    0.60210   0.81387   0.24008   1.000
    O415    O    0.59997   0.81490   0.74107   1.000
loop_
    _geom_bond_atom_site_label_1
    _geom_bond_atom_site_label_2
    _geom_bond_distance
    _geom_bond_site_symmetry_2
    _ccdc_geom_bond_type
    C266   H123      1.08943      .   S
    C266   C118      1.40474      .   S
    C266   C154      1.39255  1_564   S
    C270   H127      1.08942      .   S
    C270   C254      1.40477      .   S
    C270   C158      1.39256  1_564   S
    C264   H121      1.08941      .   S
    C264   C116      1.40474      .   S
    C264   C156      1.39277  1_554   S
    C268   H125      1.08941      .   S
    C268   C120      1.40475      .   S
    C268   C160      1.39277  1_554   S
    H24    C205      1.08833      .   S
    H28    C209      1.08803      .   S
    H30    C211      1.08803      .   S
    H26    C207      1.08812      .   S
    C219   C211      1.40656      .   S
    C219   C223      1.40556      .   S
    C219   C315      1.48488  1_554   S
    C217   C209      1.40656      .   S
    C217   C221      1.40557      .   S
    C217   C313      1.48488  1_554   S
    C213   C205      1.40657      .   S
    C213   C225      1.40542  1_455   S
    C213   C317      1.48467  1_454   S
    C215   C207      1.40658      .   S
    C215   C227      1.40555  1_455   S
    C215   C319      1.48447  1_454   S
    C256   C116      1.40329      .   S
    C256   H100      1.08967      .   S
    C256   C164      1.39277  1_554   S
    C258   C118      1.40331      .   S
    C258   H102      1.08971      .   S
    C258   C162      1.39256  1_564   S
    C260   C120      1.40329      .   S
    C260   H104      1.08916      .   S
    C260   C168      1.39276  1_554   S
    C262   C254      1.40331      .   S
    C262   H106      1.08961      .   S
    C262   C166      1.39255  1_564   S
    H60    C225      1.08731      .   S
    H62    C227      1.08730      .   S
    H58    C223      1.08731      .   S
    H56    C221      1.08730      .   S
    C209   C201      1.38698      .   S
    C211   C203      1.38564      .   S
    C207   C87       1.38544      .   S
    C205   C85       1.38543      .   S
    C116   C245      1.50527      .   S
    C120   C249      1.50525      .   S
    C254   C251      1.50536      .   S
    C118   C247      1.50520      .   S
    C225   C229      1.38845  1_655   S
    C221   C233      1.38868      .   S
    C223   C235      1.38873      .   S
    C227   C231      1.38847  1_655   S
    C203   H22       1.08966      .   S
    C203   N350      1.35113      .   S
    C87    H18       1.08968      .   S
    C87    N346      1.35142      .   S
    C85    H16       1.08966      .   S
    C85    N344      1.35129      .   S
    C201   H20       1.08946      .   S
    C201   N348      1.34987      .   S
    C229   N344      1.34906      .   S
    C229   H40       1.08871  1_455   S
    C235   N350      1.34906      .   S
    C235   H46       1.08860      .   S
    C233   N348      1.34907      .   S
    C233   H44       1.08859      .   S
    C231   N346      1.34908      .   S
    C231   H42       1.08867  1_455   S
    C247   O394      1.26871      .   S
    C247   O197      1.27920      .   S
    C245   O392      1.26873      .   S
    C245   O195      1.27916      .   S
    C249   O396      1.26873      .   S
    C249   O199      1.27918      .   S
    C251   O398      1.26873      .   S
    C251   O390      1.27910      .   S
    H8     C185      1.08904      .   S
    H10    C187      1.08906      .   S
    H12    C189      1.08902      .   S
    H14    C191      1.08879      .   S
    H68    C284      1.08903      .   S
    H70    C286      1.08833      .   S
    H66    C282      1.08833      .   S
    H64    C280      1.08812      .   S
    O382   C175      1.27455      .   S
    O380   C173      1.27457      .   S
    O376   C169      1.27453      .   S
    O378   C171      1.27453      .   S
    C191   C284      1.39085      .   S
    C191   C243      1.40444      .   S
    C185   C282      1.39088  1_545   S
    C185   C237      1.40381      .   S
    C189   C286      1.39087  1_545   S
    C189   C241      1.40387      .   S
    C187   C280      1.39129      .   S
    C187   C239      1.40382      .   S
    C280   C340      1.40344      .   S
    C286   C338      1.40291  1_655   S
    C284   C336      1.40295  1_655   S
    C282   C342      1.40336      .   S
    O408   C272      1.27678      .   S
    O414   C278      1.27575      .   S
    O412   C276      1.27563      .   S
    O410   C274      1.27565      .   S
    C169   C237      1.50024      .   S
    C169   O384      1.27573      .   S
    C171   C239      1.50022      .   S
    C171   O386      1.27574      .   S
    C175   C243      1.50025      .   S
    C175   O193      1.27570      .   S
    C173   C241      1.50030      .   S
    C173   O388      1.27561      .   S
    C241   C177      1.40303  1_655   S
    C237   C181      1.40344      .   S
    C243   C179      1.40297  1_655   S
    C239   C183      1.40341      .   S
    C342   C278      1.50012      .   S
    C342   C294      1.40378      .   S
    C336   C272      1.50016      .   S
    C336   C288      1.40379      .   S
    C340   C276      1.50016      .   S
    C340   C292      1.40379      .   S
    C338   C274      1.50010      .   S
    C338   C290      1.40391      .   S
    C276   O404      1.27459      .   S
    C272   O400      1.27462      .   S
    C274   O402      1.27459      .   S
    C278   O406      1.27403      .   S
    C181   C294      1.39109  1_545   S
    C181   H4        1.08844      .   S
    C183   C292      1.39134      .   S
    C183   H6        1.08849      .   S
    C179   C288      1.39134      .   S
    C179   H2        1.08848      .   S
    C177   C290      1.39108  1_545   S
    C177   H0        1.08844      .   S
    C292   H76       1.08908      .   S
    C288   H72       1.08875      .   S
    C290   H74       1.08907      .   S
    C294   H78       1.08910      .   S
    O366   C143      1.28044      .   S
    O360   C137      1.27898      .   S
    O362   C139      1.27911      .   S
    O364   C141      1.27900      .   S
    H108   C328      1.08889      .   S
    H114   C334      1.06658  1_455   S
    H112   C332      1.06775  1_455   S
    H110   C330      1.08884      .   S
    N358   C334      1.34901      .   S
    N358   C302      1.34999      .   S
    N356   C332      1.34912      .   S
    N356   C300      1.35010      .   S
    N354   C330      1.34913      .   S
    N354   C298      1.35000      .   S
    N352   C328      1.34912      .   S
    N352   C296      1.34847      .   S
    O368   C137      1.26864      .   S
    O370   C139      1.26862      .   S
    O372   C141      1.26864      .   S
    O374   C143      1.26864      .   S
    H88    C300      1.08945      .   S
    H80    C296      1.08918      .   S
    H90    C302      1.08943      .   S
    H82    C298      1.08944      .   S
    C143   C151      1.50571      .   S
    C141   C149      1.50575      .   S
    C139   C147      1.50570      .   S
    C137   C145      1.50575      .   S
    C334   C322      1.38905  1_655   S
    C330   C326      1.38888      .   S
    C332   C320      1.38869  1_655   S
    C328   C324      1.38874      .   S
    C296   C304      1.38849      .   S
    C300   C308      1.38669      .   S
    C302   C310      1.38685      .   S
    C298   C306      1.38686      .   S
    H34    C155      1.08967      .   S
    H32    C153      1.08891      .   S
    H38    C159      1.08961      .   S
    H36    C157      1.08889      .   S
    C322   H131      1.08741      .   S
    C322   C318      1.40637  1_455   S
    C324   H133      1.08740      .   S
    C324   C312      1.40586      .   S
    C326   H135      1.08740      .   S
    C326   C314      1.40580      .   S
    C320   H129      1.08739      .   S
    C320   C316      1.40574  1_455   S
    C151   C159      1.40345      .   S
    C151   C167      1.40325      .   S
    C145   C153      1.40359      .   S
    C145   C161      1.40470      .   S
    C149   C157      1.40358      .   S
    C149   C165      1.40469      .   S
    C147   C155      1.40345      .   S
    C147   C163      1.40464      .   S
    C308   C316      1.40649      .   S
    C308   H96       1.08825      .   S
    C304   C312      1.40646      .   S
    C304   H92       1.08688      .   S
    C306   C314      1.40647      .   S
    C306   H94       1.08816      .   S
    C310   C318      1.40649      .   S
    C310   H98       1.08817      .   S
    C157   C271      1.39328  1_545   S
    C153   C267      1.39219  1_545   S
    C159   C269      1.39298      .   S
    C155   C265      1.39285      .   S
    C312   C218      1.48505      .   S
    C314   C220      1.48506      .   S
    C316   C214      1.48485  1_655   S
    C318   C216      1.48485  1_655   S
    H52    C165      1.08947      .   S
    H48    C161      1.08944      .   S
    H50    C163      1.08945      .   S
    H54    C167      1.08972      .   S
    C167   C261      1.39405      .   S
    C163   C257      1.39284      .   S
    C161   C259      1.39271  1_545   S
    C165   C263      1.39274  1_545   S
    C267   H124      1.08921      .   S
    C267   C119      1.40622      .   S
    C271   H128      1.08944      .   S
    C271   C255      1.40487      .   S
    C265   H122      1.08957      .   S
    C265   C117      1.40481      .   S
    C269   H126      1.08960      .   S
    C269   C253      1.39973      .   S
    H27    C208      1.08957      .   S
    H25    C206      1.08811      .   S
    H29    C210      1.08814      .   S
    H31    C212      1.08818      .   S
    C218   C210      1.40649      .   S
    C218   C222      1.40596      .   S
    C220   C212      1.40648      .   S
    C220   C224      1.40581      .   S
    C214   C206      1.40646      .   S
    C214   C226      1.40559  1_455   S
    C216   C208      1.40646      .   S
    C216   C228      1.40570  1_455   S
    C259   C119      1.40342      .   S
    C259   H103      1.08957      .   S
    C261   C253      1.40441      .   S
    C261   H105      1.08960      .   S
    C257   C117      1.40342      .   S
    C257   H101      1.08967      .   S
    C263   C255      1.40341      .   S
    C263   H107      1.08955      .   S
    H63    C228      1.08740      .   S
    H61    C226      1.08740      .   S
    H59    C224      1.08740      .   S
    H57    C222      1.08739      .   S
    C210   C202      1.38680      .   S
    C206   C86       1.38682      .   S
    C212   C204      1.38686      .   S
    C208   C200      1.38687      .   S
    C253   C250      1.50967      .   S
    C117   C246      1.50568      .   S
    C255   C252      1.50560      .   S
    C119   C248      1.50561      .   S
    C222   C234      1.38884      .   S
    C224   C236      1.38889      .   S
    C226   C230      1.38865  1_655   S
    C228   C232      1.38866  1_655   S
    C86    H17       1.08926      .   S
    C86    N345      1.35012      .   S
    C202   H21       1.08943      .   S
    C202   N349      1.34996      .   S
    C200   H19       1.08942      .   S
    C200   N347      1.35005      .   S
    C204   H23       1.08942      .   S
    C204   N351      1.35003      .   S
    C236   N351      1.34911      .   S
    C236   H47       1.08885      .   S
    C232   N347      1.34912      .   S
    C232   H43       1.08869  1_455   S
    C230   N345      1.34911      .   S
    C230   H41       1.08880  1_455   S
    C234   N349      1.34910      .   S
    C234   H45       1.08882      .   S
    C248   O395      1.26860      .   S
    C248   O198      1.27916      .   S
    C252   O399      1.26862      .   S
    C252   O391      1.27916      .   S
    C250   O397      1.26860      .   S
    C250   O389      1.27919      .   S
    C246   O393      1.26862      .   S
    C246   O196      1.27910      .   S
    H11    C188      1.08909      .   S
    H13    C190      1.08910      .   S
    H15    C84       1.08908      .   S
    H9     C186      1.08904      .   S
    H69    C285      1.08948      .   S
    H71    C287      1.08830      .   S
    H67    C283      1.08847      .   S
    H65    C281      1.08835      .   S
    O377   C170      1.27511      .   S
    O383   C176      1.27458      .   S
    O381   C174      1.27449      .   S
    O379   C172      1.27460      .   S
    C84    C285      1.39133      .   S
    C84    C244      1.40388      .   S
    C190   C287      1.39113  1_545   S
    C190   C242      1.40388      .   S
    C188   C281      1.39133      .   S
    C188   C240      1.40390      .   S
    C186   C283      1.39104  1_545   S
    C186   C238      1.40394      .   S
    C287   C339      1.40302  1_655   S
    C285   C337      1.40301  1_655   S
    C283   C343      1.40343      .   S
    C281   C341      1.40345      .   S
    O413   C277      1.27581      .   S
    O415   C279      1.27574      .   S
    O411   C275      1.27569      .   S
    O409   C273      1.27583      .   S
    C174   C242      1.50000      .   S
    C174   O192      1.27585      .   S
    C176   C244      1.50012      .   S
    C176   O194      1.27568      .   S
    C172   C240      1.50015      .   S
    C172   O387      1.27567      .   S
    C170   C238      1.50011      .   S
    C170   O385      1.27563      .   S
    C238   C182      1.40303      .   S
    C240   C184      1.40336      .   S
    C244   C180      1.40293  1_655   S
    C242   C178      1.40288  1_655   S
    C339   C275      1.50025      .   S
    C339   C291      1.40393      .   S
    C341   C277      1.50025      .   S
    C341   C293      1.40379      .   S
    C337   C273      1.50023      .   S
    C337   C289      1.40380      .   S
    C343   C279      1.50028      .   S
    C343   C295      1.40378      .   S
    C279   O407      1.27456      .   S
    C273   O401      1.27452      .   S
    C275   O403      1.27432      .   S
    C277   O405      1.27428      .   S
    C182   C295      1.39055  1_545   S
    C182   H5        1.08904      .   S
    C178   C291      1.39086  1_545   S
    C178   H1        1.08834      .   S
    C184   C293      1.39120      .   S
    C184   H7        1.08828      .   S
    C180   C289      1.39121      .   S
    C180   H3        1.08823      .   S
    C295   H79       1.08904      .   S
    C289   H73       1.08907      .   S
    C293   H77       1.08902      .   S
    C291   H75       1.08861      .   S
    O367   C144      1.28001      .   S
    O365   C142      1.28011      .   S
    O363   C140      1.27906      .   S
    O361   C138      1.27908      .   S
    H111   C331      1.08931      .   S
    H113   C333      1.07805  1_455   S
    H115   C335      1.07810  1_455   S
    H109   C329      1.08859      .   S
    N357   C333      1.34906      .   S
    N357   C301      1.34991      .   S
    N355   C331      1.34906      .   S
    N355   C299      1.35003      .   S
    N359   C335      1.34907      .   S
    N359   C303      1.34996      .   S
    N353   C329      1.34907      .   S
    N353   C297      1.34989      .   S
    O375   C144      1.26873      .   S
    O369   C138      1.26871      .   S
    O371   C140      1.26872      .   S
    O373   C142      1.26871      .   S
    H89    C301      1.08969      .   S
    H83    C299      1.08949      .   S
    H81    C297      1.08945      .   S
    H91    C303      1.08947      .   S
    C144   C152      1.50524      .   S
    C140   C148      1.50528      .   S
    C138   C146      1.50493      .   S
    C142   C150      1.50522      .   S
    C333   C321      1.38856  1_655   S
    C329   C325      1.38876      .   S
    C331   C327      1.38873      .   S
    C335   C323      1.38852  1_655   S
    C297   C305      1.38608      .   S
    C299   C307      1.38683      .   S
    C301   C309      1.38684      .   S
    C303   C311      1.38683      .   S
    H39    C160      1.08966      .   S
    H37    C158      1.08961      .   S
    H35    C156      1.08965      .   S
    H33    C154      1.08971      .   S
    C321   H130      1.08731      .   S
    C321   C317      1.40543  1_455   S
    C327   H136      1.08730      .   S
    C327   C315      1.40554      .   S
    C325   H134      1.08732      .   S
    C325   C313      1.40556      .   S
    C323   H132      1.08731      .   S
    C323   C319      1.40551  1_455   S
    C146   C154      1.40321      .   S
    C146   C162      1.40525      .   S
    C148   C156      1.40329      .   S
    C148   C164      1.40475      .   S
    C150   C158      1.40330      .   S
    C150   C166      1.40477      .   S
    C152   C160      1.40328      .   S
    C152   C168      1.40474      .   S
    C305   C313      1.40666      .   S
    C305   H93       1.08889      .   S
    C311   C319      1.40659      .   S
    C311   H99       1.08812      .   S
    C309   C317      1.40659      .   S
    C309   H97       1.08822      .   S
    C307   C315      1.40657      .   S
    C307   H95       1.08800      .   S
    H51    C164      1.08919      .   S
    H55    C168      1.08923      .   S
    H49    C162      1.08941      .   S
    H53    C166      1.08942      .   S
