# CIF file generated by openbabel 2.4.90, see http://openbabel.sf.net
data_I
_chemical_name_common ''
_cell_length_a 12.396
_cell_length_b 20.153
_cell_length_c 20.225
_cell_angle_alpha 102.717
_cell_angle_beta 94.698
_cell_angle_gamma 94.474
_space_group_name_H-M_alt 'P 1'
_space_group_name_Hall 'P 1'
loop_
    _symmetry_equiv_pos_as_xyz
    x,y,z
loop_
    _atom_site_label
    _atom_site_type_symbol
    _atom_site_fract_x
    _atom_site_fract_y
    _atom_site_fract_z
    _atom_site_occupancy
    Zn0     Zn   0.61626   0.66407   0.15020   1.000
    Zn1     Zn   0.91674   0.20002   0.92677   1.000
    Zn2     Zn   0.00878   0.34957   0.08580   1.000
    Zn3     Zn   0.30555   0.11405   0.60870   1.000
    Zn4     Zn   0.11612   0.15052   0.66300   1.000
    Zn5     Zn   0.41679   0.92793   0.19818   1.000
    Zn6     Zn   0.50880   0.08533   0.34984   1.000
    Zn7     Zn   0.80551   0.60889   0.11389   1.000
    C8      C    0.13039   0.33864   0.19950   1.000
    C9      C    0.32026   0.23825   0.72439   1.000
    C10     C    0.75641   0.72814   0.06154   1.000
    C11     C    0.86961   0.07336   0.93340   1.000
    O12     O    0.31943   0.05610   0.67968   1.000
    O13     O    0.17054   0.09231   0.72922   1.000
    O14     O    0.32952   0.96095   0.12925   1.000
    O15     O    0.43899   0.89240   0.06943   1.000
    C16     C    0.66856   0.54453   0.20306   1.000
    C17     C    0.63083   0.19904   0.33881   1.000
    C18     C    0.82047   0.72446   0.23794   1.000
    C19     C    0.10200   0.02880   0.54493   1.000
    C20     C    0.78856   0.30491   0.00922   1.000
    C21     C    0.13875   0.26353   0.97877   1.000
    C22     C    0.25652   0.06129   0.72719   1.000
    C23     C    0.36950   0.93487   0.07251   1.000
    C24     C    0.16856   0.20391   0.54481   1.000
    C25     C    0.60200   0.54541   0.02855   1.000
    C26     C    0.28846   0.01014   0.30419   1.000
    C27     C    0.63857   0.97915   0.26337   1.000
    O28     O    0.81931   0.68031   0.05637   1.000
    O29     O    0.67068   0.73037   0.09251   1.000
    O30     O    0.82926   0.13050   0.95858   1.000
    O31     O    0.93948   0.06962   0.89153   1.000
    O32     O    0.75967   0.54895   0.17823   1.000
    O33     O    0.59669   0.58644   0.20240   1.000
    O34     O    0.70660   0.16987   0.36048   1.000
    O35     O    0.52739   0.17733   0.33614   1.000
    O36     O    0.87351   0.68443   0.19762   1.000
    O37     O    0.71731   0.72500   0.23321   1.000
    O38     O    0.05108   0.06398   0.59049   1.000
    O39     O    0.20431   0.03588   0.54130   1.000
    O40     O    0.10662   0.31632   0.01640   1.000
    O41     O    0.07626   0.21291   0.94249   1.000
    O42     O    0.84847   0.33319   0.06422   1.000
    O43     O    0.82425   0.27792   0.95293   1.000
    O44     O    0.26008   0.17933   0.54960   1.000
    O45     O    0.09652   0.20289   0.58625   1.000
    O46     O    0.20613   0.36006   0.17052   1.000
    O47     O    0.02695   0.33602   0.17760   1.000
    O48     O    0.37339   0.19777   0.68459   1.000
    O49     O    0.21711   0.23350   0.72485   1.000
    O50     O    0.55118   0.59115   0.06374   1.000
    O51     O    0.70430   0.54157   0.03564   1.000
    O52     O    0.60612   0.01503   0.31693   1.000
    O53     O    0.57637   0.94458   0.21178   1.000
    O54     O    0.34837   0.06488   0.33367   1.000
    O55     O    0.32416   0.95420   0.27570   1.000
loop_
    _geom_bond_atom_site_label_1
    _geom_bond_atom_site_label_2
    _geom_bond_distance
    _geom_bond_site_symmetry_2
    _ccdc_geom_bond_type
    C20    O42       1.27798      .   S
    C20    O43       1.27871  1_554   S
    O40    Zn2       1.97019      .   S
    O40    C21       1.27631  1_554   S
    C25    O51       1.27478      .   S
    C25    O50       1.27605      .   S
    O51    Zn7       2.09361      .   S
    O28    C10       1.27838      .   S
    O28    Zn7       2.04589      .   S
    C10    O29       1.27585      .   S
    O50    Zn0       2.07865      .   S
    O42    Zn2       1.98509  1_655   S
    O15    C23       1.25650      .   S
    C23    O14       1.30653      .   S
    Zn2    O47       1.93308      .   S
    O29    Zn0       2.06795      .   S
    Zn7    O32       2.04487      .   S
    Zn7    O36       2.08009      .   S
    O14    Zn5       1.95713      .   S
    Zn0    O33       2.08110      .   S
    Zn0    O37       2.09842      .   S
    O46    C8        1.24486      .   S
    O47    C8        1.31500      .   S
    O32    C16       1.27772      .   S
    O36    C18       1.27633      .   S
    Zn5    O53       1.96673      .   S
    Zn5    O55       2.02019      .   S
    O33    C16       1.27580      .   S
    O53    C27       1.27786      .   S
    O37    C18       1.27558      .   S
    C27    O52       1.27671  1_565   S
    O55    C26       1.27765  1_565   S
    C26    O54       1.27831      .   S
    O52    Zn6       1.97195      .   S
    O54    Zn6       1.98443      .   S
    O35    C17       1.31500      .   S
    O35    Zn6       1.93325      .   S
    C17    O34       1.24579      .   S
    O39    C19       1.27507      .   S
    O39    Zn3       2.09303      .   S
    C24    O44       1.27774      .   S
    C24    O45       1.27580      .   S
    C19    O38       1.27578      .   S
    O44    Zn3       2.04325      .   S
    O45    Zn4       2.06929      .   S
    O38    Zn4       2.07443      .   S
    Zn3    O12       2.04534      .   S
    Zn3    O48       2.08249      .   S
    Zn4    O49       2.10343      .   S
    Zn4    O13       2.07175      .   S
    O12    C22       1.27813      .   S
    O48    C9        1.27623      .   S
    C9     O49       1.27571      .   S
    C22    O13       1.27603      .   S
    O31    C11       1.25505      .   S
    Zn1    O41       1.96449  1_655   S
    Zn1    O43       2.01830      .   S
    Zn1    O30       1.95623      .   S
    C11    O30       1.30728      .   S
    O41    C21       1.27796      .   S
    Zn7    Zn0       2.75845      .   S
    Zn3    Zn4       2.75618      .   S
