# CIF file generated by openbabel 2.4.90, see http://openbabel.sf.net
data_I
_chemical_name_common ''
_cell_length_a 12.396
_cell_length_b 20.153
_cell_length_c 20.225
_cell_angle_alpha 102.717
_cell_angle_beta 94.698
_cell_angle_gamma 94.474
_space_group_name_H-M_alt 'P 1'
_space_group_name_Hall 'P 1'
loop_
    _symmetry_equiv_pos_as_xyz
    x,y,z
loop_
    _atom_site_label
    _atom_site_type_symbol
    _atom_site_fract_x
    _atom_site_fract_y
    _atom_site_fract_z
    _atom_site_occupancy
    C0      C    0.13039   0.33864   0.19950   1.000
    C1      C    0.32026   0.23825   0.72439   1.000
    C2      C    0.75640   0.72814   0.06154   1.000
    C3      C    0.86961   0.07336   0.93340   1.000
    C4      C    0.66856   0.54453   0.20306   1.000
    C5      C    0.63083   0.19904   0.33881   1.000
    C6      C    0.82047   0.72446   0.23794   1.000
    C7      C    0.10200   0.02880   0.54493   1.000
    C8      C    0.78855   0.30491   0.00922   1.000
    C9      C    0.13875   0.26353   0.97877   1.000
    C10     C    0.25652   0.06129   0.72719   1.000
    C11     C    0.36949   0.93487   0.07251   1.000
    C12     C    0.16856   0.20391   0.54481   1.000
    C13     C    0.60200   0.54541   0.02855   1.000
    C14     C    0.28846   0.01014   0.30419   1.000
    C15     C    0.63857   0.97915   0.26337   1.000
