# CIF file generated by openbabel 2.4.90, see http://openbabel.sf.net
data_I
_chemical_name_common ''
_cell_length_a 12.396
_cell_length_b 20.153
_cell_length_c 20.225
_cell_angle_alpha 102.717
_cell_angle_beta 94.698
_cell_angle_gamma 94.474
_space_group_name_H-M_alt 'P 1'
_space_group_name_Hall 'P 1'
loop_
    _symmetry_equiv_pos_as_xyz
    x,y,z
loop_
    _atom_site_label
    _atom_site_type_symbol
    _atom_site_fract_x
    _atom_site_fract_y
    _atom_site_fract_z
    _atom_site_occupancy
    N0      N    0.37633   0.74741   0.19594   1.000
    N1      N    0.80796   0.89941   0.99391   1.000
    N2      N    0.46057   0.39358   0.87497   1.000
    N3      N    0.04294   0.52415   0.06521   1.000
    N4      N    0.64823   0.37293   0.27240   1.000
    N5      N    0.96084   0.87526   0.39296   1.000
    N6      N    0.87617   0.19700   0.74632   1.000
    N7      N    0.46328   0.28266   0.99389   1.000
    N8      N    0.14800   0.27297   0.37346   1.000
    N9      N    0.54283   0.06506   0.52423   1.000
    N10     N    0.96314   0.99452   0.28260   1.000
    N11     N    0.30811   0.99425   0.89832   1.000
    Zr12    Zr   0.21153   0.13276   0.63564   1.000
    O13     O    0.11306   0.03568   0.54553   1.000
    O14     O    0.25086   0.07636   0.73150   1.000
    O15     O    0.18191   0.18943   0.53989   1.000
    O16     O    0.30927   0.23146   0.72406   1.000
    O17     O    0.33540   0.10778   0.59497   1.000
    O18     O    0.08623   0.15645   0.67630   1.000
    Zr19    Zr   0.71156   0.63598   0.13249   1.000
    O20     O    0.80942   0.72434   0.23106   1.000
    O21     O    0.68200   0.53985   0.18894   1.000
    O22     O    0.75078   0.73219   0.07620   1.000
    O23     O    0.61299   0.54599   0.03541   1.000
    O24     O    0.83545   0.59517   0.10766   1.000
    O25     O    0.58632   0.67697   0.15593   1.000
    Zr26    Zr   0.97930   0.25475   0.02198   1.000
    O27     O    0.06203   0.27701   0.16214   1.000
    O28     O    0.90398   0.11296   0.99596   1.000
    O29     O    0.15505   0.26368   0.00366   1.000
    O30     O    0.78764   0.27435   0.01211   1.000
    O31     O    0.93525   0.22654   0.91608   1.000
    O32     O    0.00503   0.35859   0.04732   1.000
    Zr33    Zr   0.47932   0.02255   0.25431   1.000
    O34     O    0.56219   0.16216   0.27665   1.000
    O35     O    0.50497   0.04747   0.35845   1.000
    O36     O    0.40402   0.99663   0.11222   1.000
    O37     O    0.43531   0.91694   0.22565   1.000
    O38     O    0.65498   0.00421   0.26342   1.000
    O39     O    0.28759   0.01276   0.27398   1.000
loop_
    _geom_bond_atom_site_label_1
    _geom_bond_atom_site_label_2
    _geom_bond_distance
    _geom_bond_site_symmetry_2
    _ccdc_geom_bond_type
    Zr12   O13       2.51636      .   S
    N5     O13       4.15168  1_665   S
    Zr12   O14       2.48795      .   S
    N11    O14       4.10789  1_565   S
    Zr12   O15       2.47224      .   S
    N8     O15       4.08855      .   S
    Zr12   O16       2.51498      .   S
    N2     O16       4.15022      .   S
    Zr12   O17       1.85277      .   S
    N9     O17       3.13132      .   S
    Zr12   O18       1.86250      .   S
    N6     O18       3.14326  1_655   S
    Zr19   O20       2.51407      .   S
    N5     O20       4.14895      .   S
    Zr19   O21       2.47433      .   S
    N4     O21       4.09110      .   S
    Zr19   O22       2.49148      .   S
    N1     O22       4.11330  1_556   S
    Zr19   O23       2.51617      .   S
    N2     O23       4.15154  1_556   S
    Zr19   O24       1.85166      .   S
    N3     O24       3.12993  1_455   S
    Zr19   O25       1.86156      .   S
    N0     O25       3.14037      .   S
    Zr26   O27       2.86018  1_655   S
    N8     O27       4.33931      .   S
    Zr26   O28       2.85583  1_554   S
    N1     O28       4.36505  1_565   S
    Zr26   O29       2.23970  1_655   S
    N7     O29       3.83568  1_556   S
    Zr26   O30       2.43795      .   S
    N7     O30       4.02750  1_556   S
    Zr26   O31       2.10533  1_554   S
    N6     O31       3.36148      .   S
    Zr26   O32       2.03483  1_655   S
    N3     O32       3.26796      .   S
    Zr33   O34       2.84410      .   S
    N4     O34       4.31928      .   S
    Zr33   O35       2.04691      .   S
    N9     O35       3.28341      .   S
    Zr33   O36       2.86809  1_545   S
    N11    O36       4.38039  1_556   S
    Zr33   O37       2.09465  1_545   S
    N0     O37       3.34707      .   S
    Zr33   O38       2.23657      .   S
    N10    O38       3.83235  1_565   S
    Zr33   O39       2.44171      .   S
    N10    O39       4.03162  1_665   S
