# CIF file generated by openbabel 2.4.90, see http://openbabel.sf.net
data_I
_chemical_name_common ''
_cell_length_a 12.396
_cell_length_b 20.153
_cell_length_c 20.225
_cell_angle_alpha 102.717
_cell_angle_beta 94.698
_cell_angle_gamma 94.474
_space_group_name_H-M_alt 'P 1'
_space_group_name_Hall 'P 1'
loop_
    _symmetry_equiv_pos_as_xyz
    x,y,z
loop_
    _atom_site_label
    _atom_site_type_symbol
    _atom_site_fract_x
    _atom_site_fract_y
    _atom_site_fract_z
    _atom_site_occupancy
    Zr0     Zr   0.80551   0.60889   0.11389   1.000
    Zr1     Zr   0.61626   0.66407   0.15020   1.000
    Zr2     Zr   0.91674   0.20002   0.92677   1.000
    Zr3     Zr   0.00878   0.34957   0.08580   1.000
    Zr4     Zr   0.30555   0.11405   0.60870   1.000
    Zr5     Zr   0.11612   0.15052   0.66300   1.000
    Zr6     Zr   0.41679   0.92793   0.19818   1.000
    Zr7     Zr   0.50880   0.08533   0.34984   1.000
    Zr8     Zr   0.75640   0.72814   0.06154   1.000
    Zr9     Zr   0.86961   0.07336   0.93340   1.000
    Zr10    Zr   0.66856   0.54453   0.20306   1.000
    Zr11    Zr   0.63083   0.19904   0.33881   1.000
    Zr12    Zr   0.82047   0.72446   0.23794   1.000
    Zr13    Zr   0.10200   0.02880   0.54493   1.000
    Zr14    Zr   0.78855   0.30491   0.00922   1.000
    Zr15    Zr   0.13875   0.26353   0.97877   1.000
    Zr16    Zr   0.25652   0.06129   0.72719   1.000
    Zr17    Zr   0.36949   0.93487   0.07251   1.000
    Zr18    Zr   0.16856   0.20391   0.54481   1.000
    Zr19    Zr   0.13039   0.33864   0.19950   1.000
    Zr20    Zr   0.32026   0.23825   0.72439   1.000
    Zr21    Zr   0.60200   0.54541   0.02855   1.000
    Zr22    Zr   0.28846   0.01014   0.30419   1.000
    Zr23    Zr   0.63857   0.97915   0.26337   1.000
    Zr24    Zr   0.81931   0.68031   0.05637   1.000
    Zr25    Zr   0.67068   0.73037   0.09251   1.000
    Zr26    Zr   0.82926   0.13050   0.95858   1.000
    Zr27    Zr   0.93948   0.06962   0.89153   1.000
    Zr28    Zr   0.75967   0.54895   0.17823   1.000
    Zr29    Zr   0.59669   0.58644   0.20240   1.000
    Zr30    Zr   0.70660   0.16987   0.36048   1.000
    Zr31    Zr   0.52739   0.17733   0.33614   1.000
    Zr32    Zr   0.87351   0.68443   0.19762   1.000
    Zr33    Zr   0.71731   0.72500   0.23321   1.000
    Zr34    Zr   0.05108   0.06397   0.59049   1.000
    Zr35    Zr   0.20431   0.03588   0.54130   1.000
    Zr36    Zr   0.10662   0.31632   0.01640   1.000
    Zr37    Zr   0.07626   0.21291   0.94249   1.000
    Zr38    Zr   0.84847   0.33319   0.06422   1.000
    Zr39    Zr   0.82425   0.27792   0.95293   1.000
    Zr40    Zr   0.31943   0.05610   0.67968   1.000
    Zr41    Zr   0.17054   0.09231   0.72922   1.000
    Zr42    Zr   0.32952   0.96095   0.12925   1.000
    Zr43    Zr   0.43899   0.89240   0.06943   1.000
    Zr44    Zr   0.26008   0.17933   0.54960   1.000
    Zr45    Zr   0.09652   0.20289   0.58625   1.000
    Zr46    Zr   0.20613   0.36006   0.17052   1.000
    Zr47    Zr   0.02695   0.33602   0.17760   1.000
    Zr48    Zr   0.37339   0.19777   0.68459   1.000
    Zr49    Zr   0.21711   0.23350   0.72485   1.000
    Zr50    Zr   0.55118   0.59115   0.06374   1.000
    Zr51    Zr   0.70430   0.54157   0.03564   1.000
    Zr52    Zr   0.60612   0.01503   0.31693   1.000
    Zr53    Zr   0.57637   0.94458   0.21178   1.000
    Zr54    Zr   0.34836   0.06488   0.33367   1.000
    Zr55    Zr   0.32416   0.95420   0.27570   1.000
    O56     O    0.81851   0.31905   0.03672   1.000
    O57     O    0.80640   0.29141   0.98107   1.000
    O58     O    0.05770   0.33294   0.05110   1.000
    O59     O    0.12268   0.28992   0.99758   1.000
    O60     O    0.65315   0.54349   0.03209   1.000
    O61     O    0.57659   0.56828   0.04614   1.000
    O62     O    0.75491   0.57523   0.07476   1.000
    O63     O    0.78786   0.70423   0.05896   1.000
    O64     O    0.81241   0.64460   0.08513   1.000
    O65     O    0.71354   0.72926   0.07702   1.000
    O66     O    0.58372   0.62761   0.10697   1.000
    O67     O    0.92863   0.34138   0.07501   1.000
    O68     O    0.40424   0.91363   0.07097   1.000
    O69     O    0.34951   0.94791   0.10088   1.000
    O70     O    0.01787   0.34279   0.13170   1.000
    O71     O    0.64347   0.69722   0.12135   1.000
    O72     O    0.78259   0.57892   0.14606   1.000
    O73     O    0.83951   0.64666   0.15576   1.000
    O74     O    0.37316   0.94444   0.16371   1.000
    O75     O    0.60647   0.62526   0.17630   1.000
    O76     O    0.66679   0.69454   0.19170   1.000
    O77     O    0.16826   0.34935   0.18501   1.000
    O78     O    0.07867   0.33733   0.18855   1.000
    O79     O    0.71411   0.54674   0.19064   1.000
    O80     O    0.84699   0.70444   0.21778   1.000
    O81     O    0.49658   0.93625   0.20498   1.000
    O82     O    0.37048   0.94106   0.23694   1.000
    O83     O    0.63262   0.56548   0.20273   1.000
    O84     O    0.60747   0.96186   0.23757   1.000
    O85     O    0.76889   0.72473   0.23558   1.000
    O86     O    0.62234   0.99709   0.29015   1.000
    O87     O    0.30631   0.98217   0.28995   1.000
    O88     O    0.31841   0.03751   0.31893   1.000
    O89     O    0.55746   0.05018   0.33338   1.000
    O90     O    0.42858   0.07510   0.34175   1.000
    O91     O    0.57911   0.18819   0.33748   1.000
    O92     O    0.51809   0.13133   0.34299   1.000
    O93     O    0.66871   0.18446   0.34964   1.000
    O94     O    0.15316   0.03234   0.54311   1.000
    O95     O    0.25493   0.07497   0.57500   1.000
    O96     O    0.21432   0.19162   0.54721   1.000
    O97     O    0.13254   0.20340   0.56553   1.000
    O98     O    0.07654   0.04639   0.56771   1.000
    O99     O    0.28281   0.14669   0.57915   1.000
    O100    O    0.10632   0.17671   0.62462   1.000
    O101    O    0.08360   0.10725   0.62674   1.000
    O102    O    0.31249   0.08507   0.64419   1.000
    O103    O    0.33947   0.15591   0.64665   1.000
    O104    O    0.16661   0.19201   0.69392   1.000
    O105    O    0.14333   0.12141   0.69611   1.000
    O106    O    0.28798   0.05870   0.70343   1.000
    O107    O    0.34683   0.21801   0.70449   1.000
    O108    O    0.26869   0.23588   0.72462   1.000
    O109    O    0.21353   0.07680   0.72820   1.000
    O110    O    0.90454   0.07149   0.91246   1.000
    O111    O    0.99650   0.20646   0.93463   1.000
    O112    O    0.87050   0.23897   0.93985   1.000
    O113    O    0.87300   0.16526   0.94268   1.000
    O114    O    0.84943   0.10193   0.94599   1.000
    O115    O    0.10750   0.23822   0.96063   1.000
    O116    O    0.71089   0.63648   0.13205   1.000
    O117    O    0.21083   0.13228   0.63585   1.000
    N118    N    0.37633   0.74741   0.19594   1.000
    O119    O    0.46108   0.71796   0.17936   1.000
    O120    O    0.39130   0.81132   0.19700   1.000
    N121    N    0.80796   0.89941   0.99391   1.000
    O122    O    0.79001   0.82839   0.01990   1.000
    O123    O    0.82866   0.97116   0.96994   1.000
    N124    N    0.46057   0.39358   0.87497   1.000
    O125    O    0.51443   0.45599   0.93833   1.000
    O126    O    0.40700   0.33015   0.81248   1.000
    N127    N    0.04294   0.52415   0.06521   1.000
    O128    O    0.95934   0.55435   0.08283   1.000
    O129    O    0.03076   0.46243   0.07265   1.000
    N130    N    0.64823   0.37293   0.27240   1.000
    O131    O    0.65243   0.44372   0.24538   1.000
    O132    O    0.64507   0.30177   0.29900   1.000
    N133    N    0.96084   0.87526   0.39296   1.000
    O134    O    0.90727   0.81269   0.32964   1.000
    O135    O    0.01459   0.93861   0.45542   1.000
    N136    N    0.87617   0.19700   0.74632   1.000
    O137    O    0.96093   0.18015   0.71696   1.000
    O138    O    0.89120   0.19832   0.81019   1.000
    N139    N    0.46328   0.28266   0.99389   1.000
    O140    O    0.33080   0.27261   0.98534   1.000
    O141    O    0.59599   0.29394   0.00224   1.000
    N142    N    0.14800   0.27297   0.37346   1.000
    O143    O    0.15228   0.24610   0.44415   1.000
    O144    O    0.14475   0.29927   0.30230   1.000
    N145    N    0.54283   0.06506   0.52423   1.000
    O146    O    0.45926   0.08281   0.55429   1.000
    O147    O    0.53063   0.07239   0.46260   1.000
    N148    N    0.96314   0.99452   0.28260   1.000
    O149    O    0.09587   0.00298   0.29365   1.000
    O150    O    0.83065   0.98586   0.27253   1.000
    N151    N    0.30811   0.99425   0.89832   1.000
    O152    O    0.32871   0.97071   0.97013   1.000
    O153    O    0.29018   0.01996   0.82736   1.000
loop_
    _geom_bond_atom_site_label_1
    _geom_bond_atom_site_label_2
    _geom_bond_distance
    _geom_bond_site_symmetry_2
    _ccdc_geom_bond_type
    Zr14   O56       0.63902      .   S
    Zr38   O56       0.63902      .   S
    Zr14   O57       0.63937  1_554   S
    Zr39   O57       0.63937      .   S
    Zr36   O58       0.98509      .   S
    Zr3    O58       0.98509      .   S
    Zr36   O59       0.63815  1_554   S
    Zr15   O59       0.63815      .   S
    Zr21   O60       0.63736      .   S
    Zr51   O60       0.63736      .   S
    Zr21   O61       0.63806      .   S
    Zr50   O61       0.63806      .   S
    Zr51   O62       1.04680      .   S
    Zr0    O62       1.04680      .   S
    Zr24   O63       0.63921      .   S
    Zr8    O63       0.63921      .   S
    Zr24   O64       1.02297      .   S
    Zr0    O64       1.02297      .   S
    Zr8    O65       0.63791      .   S
    Zr25   O65       0.63791      .   S
    Zr50   O66       1.03933      .   S
    Zr1    O66       1.03933      .   S
    Zr38   O67       0.99252      .   S
    Zr3    O67       0.99252  1_455   S
    Zr43   O68       0.62831      .   S
    Zr17   O68       0.62831      .   S
    Zr17   O69       0.65326      .   S
    Zr42   O69       0.65326      .   S
    Zr3    O70       0.96652      .   S
    Zr47   O70       0.96652      .   S
    Zr25   O71       1.03395      .   S
    Zr1    O71       1.03395      .   S
    Zr0    O72       1.02245      .   S
    Zr28   O72       1.02245      .   S
    Zr0    O73       1.04004      .   S
    Zr32   O73       1.04004      .   S
    Zr42   O74       0.97859      .   S
    Zr6    O74       0.97859      .   S
    Zr1    O75       1.04059      .   S
    Zr29   O75       1.04059      .   S
    Zr1    O76       1.04921      .   S
    Zr33   O76       1.04921      .   S
    Zr46   O77       0.62248      .   S
    Zr19   O77       0.62248      .   S
    Zr47   O78       0.65746      .   S
    Zr19   O78       0.65746      .   S
    Zr28   O79       0.63883      .   S
    Zr10   O79       0.63883      .   S
    Zr32   O80       0.63816      .   S
    Zr12   O80       0.63816      .   S
    Zr6    O81       0.98333      .   S
    Zr53   O81       0.98333      .   S
    Zr6    O82       1.01010      .   S
    Zr55   O82       1.01010      .   S
    Zr29   O83       0.63792      .   S
    Zr10   O83       0.63792      .   S
    Zr53   O84       0.63893      .   S
    Zr23   O84       0.63893      .   S
    Zr33   O85       0.63782      .   S
    Zr12   O85       0.63782      .   S
    Zr23   O86       0.63836      .   S
    Zr52   O86       0.63836  1_545   S
    Zr55   O87       0.63887      .   S
    Zr22   O87       0.63887  1_545   S
    Zr22   O88       0.63910      .   S
    Zr54   O88       0.63910      .   S
    Zr52   O89       0.98591      .   S
    Zr7    O89       0.98591      .   S
    Zr54   O90       0.99225      .   S
    Zr7    O90       0.99225      .   S
    Zr31   O91       0.65752      .   S
    Zr11   O91       0.65752      .   S
    Zr31   O92       0.96662      .   S
    Zr7    O92       0.96662      .   S
    Zr11   O93       0.62295      .   S
    Zr30   O93       0.62295      .   S
    Zr35   O94       0.63752      .   S
    Zr13   O94       0.63752      .   S
    Zr35   O95       1.04647      .   S
    Zr4    O95       1.04647      .   S
    Zr18   O96       0.63884      .   S
    Zr44   O96       0.63884      .   S
    Zr18   O97       0.63791      .   S
    Zr45   O97       0.63791      .   S
    Zr13   O98       0.63787      .   S
    Zr34   O98       0.63787      .   S
    Zr44   O99       1.02165      .   S
    Zr4    O99       1.02165      .   S
    Zr45   O100      1.03467      .   S
    Zr5    O100      1.03467      .   S
    Zr34   O101      1.03724      .   S
    Zr5    O101      1.03724      .   S
    Zr4    O102      1.02263      .   S
    Zr40   O102      1.02263      .   S
    Zr4    O103      1.04129      .   S
    Zr48   O103      1.04129      .   S
    Zr5    O104      1.05174      .   S
    Zr49   O104      1.05174      .   S
    Zr5    O105      1.03592      .   S
    Zr41   O105      1.03592      .   S
    Zr40   O106      0.63907      .   S
    Zr16   O106      0.63907      .   S
    Zr48   O107      0.63808      .   S
    Zr20   O107      0.63808      .   S
    Zr20   O108      0.63784      .   S
    Zr49   O108      0.63784      .   S
    Zr16   O109      0.63797      .   S
    Zr41   O109      0.63797      .   S
    Zr27   O110      0.62751      .   S
    Zr9    O110      0.62751      .   S
    Zr2    O111      0.98223      .   S
    Zr37   O111      0.98223  1_455   S
    Zr2    O112      1.00917      .   S
    Zr39   O112      1.00917      .   S
    Zr2    O113      0.97807      .   S
    Zr26   O113      0.97807      .   S
    Zr9    O114      0.65367      .   S
    Zr26   O114      0.65367      .   S
    Zr37   O115      0.63897      .   S
    Zr15   O115      0.63897      .   S
    Zr0    O116      1.37924      .   S
    Zr1    O116      1.37924      .   S
    Zr4    O117      1.37811      .   S
    Zr5    O117      1.37811      .   S
    N118   O119      1.27901      .   S
    Zr1    O119      2.33605      .   S
    N118   O120      1.28225      .   S
    Zr6    O120      2.34116      .   S
    N121   O122      1.63552  1_556   S
    Zr8    O122      2.37484      .   S
    N121   O123      1.63183      .   S
    Zr9    O123      2.36947  1_545   S
    N124   O125      1.63976      .   S
    Zr21   O125      2.38294  1_554   S
    N124   O126      1.64045      .   S
    Zr20   O126      2.38397      .   S
    N127   O128      1.27872  1_455   S
    Zr0    O128      2.33615      .   S
    N127   O129      1.28426      .   S
    Zr3    O129      2.34527      .   S
    N130   O131      1.63488      .   S
    Zr10   O131      2.37289      .   S
    N130   O132      1.63764      .   S
    Zr11   O132      2.38018      .   S
    N133   O134      1.64022      .   S
    Zr12   O134      2.38363      .   S
    N133   O135      1.63974  1_655   S
    Zr13   O135      2.38285  1_545   S
    N136   O137      1.28099      .   S
    Zr5    O137      2.34187  1_455   S
    N136   O138      1.28398      .   S
    Zr2    O138      2.34550      .   S
    N139   O140      1.62905      .   S
    Zr15   O140      2.36398      .   S
    N139   O141      1.63268  1_556   S
    Zr14   O141      2.36975      .   S
    N142   O143      1.63492      .   S
    Zr18   O143      2.37280      .   S
    N142   O144      1.63817      .   S
    Zr19   O144      2.38149      .   S
    N145   O146      1.27899      .   S
    Zr4    O146      2.33741      .   S
    N145   O147      1.28537      .   S
    Zr7    O147      2.34818      .   S
    N148   O149      1.63256  1_665   S
    Zr22   O149      2.36964      .   S
    N148   O150      1.62910      .   S
    Zr23   O150      2.36403      .   S
    N151   O152      1.63127      .   S
    Zr17   O152      2.36824  1_554   S
    N151   O153      1.63432  1_565   S
    Zr16   O153      2.37298      .   S
