# CIF file generated by openbabel 2.4.90, see http://openbabel.sf.net
data_I
_chemical_name_common ''
_cell_length_a 12.489
_cell_length_b 15.682
_cell_length_c 15.687
_cell_angle_alpha 120.01
_cell_angle_beta 90.011
_cell_angle_gamma 89.908
_space_group_name_H-M_alt 'P 1'
_space_group_name_Hall 'P 1'
loop_
    _symmetry_equiv_pos_as_xyz
    x,y,z
loop_
    _atom_site_label
    _atom_site_type_symbol
    _atom_site_fract_x
    _atom_site_fract_y
    _atom_site_fract_z
    _atom_site_occupancy
    H0      H    0.09399   0.72518   0.60384   1.000
    H1      H    0.59398   0.72518   0.60382   1.000
    H2      H    0.20953   0.58908   0.59240   1.000
    H3      H    0.70952   0.58908   0.59240   1.000
    H4      H    0.45492   0.66065   0.46004   1.000
    H5      H    0.95491   0.66065   0.46004   1.000
    H6      H    0.35086   0.80176   0.47127   1.000
    H7      H    0.85085   0.80175   0.47126   1.000
    H8      H    0.26074   0.87905   0.27481   1.000
    H9      H    0.76073   0.87906   0.27481   1.000
    H10     H    0.37627   0.00000   0.41054   1.000
    H11     H    0.87626   0.00000   0.41054   1.000
    H12     H    0.12151   0.79880   0.33882   1.000
    H13     H    0.62150   0.79880   0.33882   1.000
    H14     H    0.01742   0.66908   0.19811   1.000
    H15     H    0.51741   0.66907   0.19811   1.000
    H16     H    0.42700   0.39616   0.12123   1.000
    H17     H    0.92699   0.39616   0.12123   1.000
    H18     H    0.04227   0.40794   0.99687   1.000
    H19     H    0.54226   0.40795   0.99687   1.000
    H20     H    0.28761   0.53985   0.20098   1.000
    H21     H    0.78761   0.53985   0.20098   1.000
    H22     H    0.18380   0.52828   0.33054   1.000
    H23     H    0.68379   0.52827   0.33054   1.000
    H24     H    0.09420   0.27481   0.39587   1.000
    H25     H    0.59419   0.27482   0.39588   1.000
    H26     H    0.20976   0.41059   0.40731   1.000
    H27     H    0.70975   0.41058   0.40731   1.000
    H28     H    0.45460   0.33881   0.54035   1.000
    H29     H    0.95459   0.33881   0.54035   1.000
    H30     H    0.35051   0.19800   0.52913   1.000
    H31     H    0.85050   0.19801   0.52915   1.000
    H32     H    0.26083   0.12142   0.72526   1.000
    H33     H    0.76082   0.12142   0.72526   1.000
    H34     H    0.37635   0.99682   0.58916   1.000
    H35     H    0.87634   0.99682   0.58916   1.000
    H36     H    0.12143   0.20095   0.66088   1.000
    H37     H    0.62142   0.20095   0.66080   1.000
    H38     H    0.01739   0.33075   0.80199   1.000
    H39     H    0.51738   0.33075   0.80198   1.000
    H40     H    0.42668   0.60393   0.87882   1.000
    H41     H    0.92667   0.60393   0.87882   1.000
    H42     H    0.04194   0.59252   0.00000   1.000
    H43     H    0.54193   0.59252   0.00000   1.000
    H44     H    0.28804   0.46067   0.79970   1.000
    H45     H    0.78803   0.46067   0.79970   1.000
    H46     H    0.18419   0.47181   0.66985   1.000
    H47     H    0.68419   0.47181   0.66985   1.000
    C48     C    0.21309   0.77307   0.53691   1.000
    C49     C    0.71308   0.77306   0.53600   1.000
    C50     C    0.17384   0.71274   0.57193   1.000
    C51     C    0.67383   0.71274   0.57190   1.000
    C52     C    0.23748   0.63696   0.56530   1.000
    C53     C    0.73747   0.63695   0.56530   1.000
    C54     C    0.37470   0.67728   0.49137   1.000
    C55     C    0.87469   0.67727   0.49136   1.000
    C56     C    0.31629   0.75523   0.49713   1.000
    C57     C    0.81629   0.75523   0.49713   1.000
    C58     C    0.37973   0.76382   0.22687   1.000
    C59     C    0.87973   0.76383   0.22687   1.000
    C60     C    0.34055   0.85935   0.28713   1.000
    C61     C    0.84054   0.85935   0.28713   1.000
    C62     C    0.40419   0.92845   0.36272   1.000
    C63     C    0.90418   0.92845   0.36272   1.000
    C64     C    0.04132   0.81372   0.32233   1.000
    C65     C    0.54131   0.81371   0.32233   1.000
    C66     C    0.48289   0.74162   0.24458   1.000
    C67     C    0.98288   0.74162   0.24458   1.000
    C68     C    0.04609   0.46282   0.23610   1.000
    C69     C    0.54609   0.46281   0.23612   1.000
    C70     C    0.00679   0.42804   0.14082   1.000
    C71     C    0.50678   0.42804   0.14082   1.000
    C72     C    0.07031   0.43481   0.07176   1.000
    C73     C    0.57030   0.43480   0.07176   1.000
    C74     C    0.20748   0.50854   0.18616   1.000
    C75     C    0.70747   0.50853   0.18610   1.000
    C76     C    0.14919   0.50258   0.25818   1.000
    C77     C    0.64919   0.50258   0.25818   1.000
    C78     C    0.21304   0.22679   0.46310   1.000
    C79     C    0.71302   0.22680   0.46311   1.000
    C80     C    0.17393   0.28712   0.42793   1.000
    C81     C    0.67392   0.28712   0.42793   1.000
    C82     C    0.23758   0.36273   0.43452   1.000
    C83     C    0.73758   0.36274   0.43450   1.000
    C84     C    0.37450   0.32231   0.50888   1.000
    C85     C    0.87448   0.32231   0.50889   1.000
    C86     C    0.31607   0.24453   0.50312   1.000
    C87     C    0.81606   0.24452   0.50312   1.000
    C88     C    0.37976   0.23633   0.77322   1.000
    C89     C    0.87975   0.23633   0.77323   1.000
    C90     C    0.34060   0.14095   0.71280   1.000
    C91     C    0.84059   0.14095   0.71280   1.000
    C92     C    0.40423   0.07179   0.63706   1.000
    C93     C    0.90422   0.07179   0.63706   1.000
    C94     C    0.04128   0.18619   0.67740   1.000
    C95     C    0.54127   0.18620   0.67746   1.000
    C96     C    0.48287   0.25834   0.75540   1.000
    C97     C    0.98286   0.25834   0.75540   1.000
    C98     C    0.04613   0.53721   0.76407   1.000
    C99     C    0.54612   0.53722   0.76407   1.000
    C100    C    0.00664   0.57213   0.85937   1.000
    C101    C    0.50662   0.57213   0.85937   1.000
    C102    C    0.07017   0.56559   0.92858   1.000
    C103    C    0.57016   0.56560   0.92858   1.000
    C104    C    0.20774   0.49189   0.81438   1.000
    C105    C    0.70774   0.49190   0.81438   1.000
    C106    C    0.14944   0.49759   0.74220   1.000
    C107    C    0.64944   0.49759   0.74220   1.000
    N108    N    0.33620   0.61849   0.52431   1.000
    N109    N    0.83619   0.61848   0.52429   1.000
    N110    N    0.00286   0.90562   0.38107   1.000
    N111    N    0.50286   0.90561   0.38107   1.000
    N112    N    0.16895   0.47580   0.09446   1.000
    N113    N    0.66895   0.47580   0.09445   1.000
    N114    N    0.33615   0.38106   0.47573   1.000
    N115    N    0.83614   0.38106   0.47574   1.000
    N116    N    0.00285   0.09444   0.61862   1.000
    N117    N    0.50284   0.09444   0.61860   1.000
    N118    N    0.16902   0.52471   0.90606   1.000
    N119    N    0.66902   0.52472   0.90606   1.000
loop_
    _geom_bond_atom_site_label_1
    _geom_bond_atom_site_label_2
    _geom_bond_distance
    _geom_bond_site_symmetry_2
    _ccdc_geom_bond_type
    H43    C103      1.04128  1_554   S
    H42    C102      1.04126  1_554   S
    C72    N112      1.35322      .   S
    C72    C70       1.38915      .   S
    C72    H18       1.08884  1_554   S
    C73    N113      1.35323      .   S
    C73    C71       1.38911      .   S
    C73    H19       1.08886  1_554   S
    N113   C75       1.35066      .   S
    N112   C74       1.35135      .   S
    H17    C70       1.08877  1_655   S
    H16    C71       1.08858      .   S
    C70    C68       1.39911      .   S
    C71    C69       1.39943      .   S
    C75    H21       1.08819      .   S
    C75    C77       1.38677      .   S
    C74    H20       1.08821      .   S
    C74    C76       1.38600      .   S
    H14    C67       1.08660  1_455   S
    H15    C66       1.08653      .   S
    C59    C67       1.39760      .   S
    C59    C61       1.39949      .   S
    C58    C66       1.39761      .   S
    C58    C60       1.39950      .   S
    C68    C76       1.39756      .   S
    C69    C77       1.39755      .   S
    C66    C65       1.38608      .   S
    C67    C64       1.38620  1_655   S
    C76    H22       1.08646      .   S
    C77    H23       1.08651      .   S
    H8     C60       1.08855      .   S
    H9     C61       1.08855      .   S
    C60    C62       1.38892      .   S
    C61    C63       1.38893      .   S
    C65    H13       1.08824      .   S
    C65    N111      1.35138      .   S
    C64    H12       1.08824      .   S
    C64    N110      1.35138      .   S
    C63    N110      1.35335  1_655   S
    C63    H11       1.04893  1_565   S
    C62    N111      1.35316      .   S
    C62    H10       1.04894  1_565   S
    H24    C80       1.08852      .   S
    H25    C81       1.08852      .   S
    H27    C83       1.08853      .   S
    H26    C82       1.08888      .   S
    C81    C83       1.38905      .   S
    C81    C79       1.39947      .   S
    C80    C82       1.38891      .   S
    C80    C78       1.39948      .   S
    C83    N115      1.35328      .   S
    C82    N114      1.35312      .   S
    H4     C54       1.08821      .   S
    H5     C55       1.08823      .   S
    C78    C86       1.39763      .   S
    C79    C87       1.39763      .   S
    H7     C57       1.08650      .   S
    H6     C56       1.08655      .   S
    N114   C84       1.35136      .   S
    N115   C85       1.35139      .   S
    C55    C57       1.38607      .   S
    C55    N109      1.35136      .   S
    C54    C56       1.38608      .   S
    C54    N108      1.35145      .   S
    C57    C49       1.39282      .   S
    C56    C48       1.39764      .   S
    C87    C85       1.38607      .   S
    C87    H31       1.08656      .   S
    C86    C84       1.38609      .   S
    C86    H30       1.08648      .   S
    C84    H28       1.08826      .   S
    C85    H29       1.08825      .   S
    N109   C53       1.35293      .   S
    N108   C52       1.35282      .   S
    C49    C51       1.40945      .   S
    C48    C50       1.39947      .   S
    C52    C50       1.38866      .   S
    C52    H2        1.08938      .   S
    C53    C51       1.38886      .   S
    C53    H3        1.08924      .   S
    C51    H1        1.08867      .   S
    C50    H0        1.08854      .   S
    H35    C93       1.08886  1_565   S
    H34    C92       1.08887  1_565   S
    N117   C92       1.35322      .   S
    N117   C95       1.35143      .   S
    N116   C93       1.35331  1_455   S
    N116   C94       1.35123      .   S
    C92    C90       1.38849      .   S
    C93    C91       1.38852      .   S
    H37    C95       1.08870      .   S
    H36    C94       1.08792      .   S
    H47    C107      1.08655      .   S
    H46    C106      1.08652      .   S
    C94    C97       1.38654  1_455   S
    C95    C96       1.38596      .   S
    C90    H32       1.08881      .   S
    C90    C88       1.39959      .   S
    C91    H33       1.08880      .   S
    C91    C89       1.39959      .   S
    C107   C99       1.39752      .   S
    C107   C105      1.38595      .   S
    C106   C98       1.39753      .   S
    C106   C104      1.38597      .   S
    C97    C89       1.39777      .   S
    C97    H38       1.08670  1_655   S
    C96    C88       1.39773      .   S
    C96    H39       1.08660      .   S
    C99    C101      1.39953      .   S
    C98    C100      1.39950      .   S
    H45    C105      1.08820      .   S
    H44    C104      1.08820      .   S
    C104   N118      1.35136      .   S
    C105   N119      1.35136      .   S
    C100   H41       1.08877  1_455   S
    C100   C102      1.38907      .   S
    C101   H40       1.08858      .   S
    C101   C103      1.38905      .   S
    N119   C103      1.35321      .   S
    N118   C102      1.35322      .   S
