# CIF file generated by openbabel 2.4.90, see http://openbabel.sf.net
data_I
_chemical_name_common ''
_cell_length_a 12.489
_cell_length_b 15.682
_cell_length_c 15.687
_cell_angle_alpha 120.01
_cell_angle_beta 90.011
_cell_angle_gamma 89.908
_space_group_name_H-M_alt 'P 1'
_space_group_name_Hall 'P 1'
loop_
    _symmetry_equiv_pos_as_xyz
    x,y,z
loop_
    _atom_site_label
    _atom_site_type_symbol
    _atom_site_fract_x
    _atom_site_fract_y
    _atom_site_fract_z
    _atom_site_occupancy
    Zn0     Zn   0.92561   0.49959   0.49995   1.000
    Zn1     Zn   0.09223   0.99993   0.49975   1.000
    Zn2     Zn   0.59223   0.99993   0.49975   1.000
    Zn3     Zn   0.25868   0.50023   0.00029   1.000
    Zn4     Zn   0.75867   0.50023   0.00029   1.000
    Zn5     Zn   0.42561   0.49959   0.49995   1.000
    C6      C    0.14407   0.85317   0.53873   1.000
    C7      C    0.64406   0.85316   0.53872   1.000
    C8      C    0.31072   0.68567   0.14697   1.000
    C9      C    0.81072   0.68567   0.14697   1.000
    C10     C    0.47723   0.46083   0.31429   1.000
    C11     C    0.97723   0.46083   0.31429   1.000
    C12     C    0.14408   0.14677   0.46115   1.000
    C13     C    0.64407   0.14678   0.46116   1.000
    C14     C    0.31069   0.31454   0.85332   1.000
    C15     C    0.81069   0.31454   0.85332   1.000
    C16     C    0.47724   0.53887   0.68573   1.000
    C17     C    0.97723   0.53887   0.68570   1.000
    O18     O    0.19462   0.91340   0.51844   1.000
    O19     O    0.69461   0.91340   0.51844   1.000
    O20     O    0.04637   0.85534   0.55530   1.000
    O21     O    0.54636   0.85534   0.55531   1.000
    O22     O    0.36127   0.60497   0.08665   1.000
    O23     O    0.86126   0.60497   0.08665   1.000
    O24     O    0.21303   0.70029   0.14492   1.000
    O25     O    0.71302   0.70029   0.14492   1.000
    O26     O    0.02791   0.48079   0.39471   1.000
    O27     O    0.52790   0.48079   0.39471   1.000
    O28     O    0.37954   0.44446   0.29992   1.000
    O29     O    0.87953   0.44446   0.29992   1.000
    O30     O    0.19467   0.08632   0.48128   1.000
    O31     O    0.69466   0.08632   0.48128   1.000
    O32     O    0.04639   0.14478   0.44459   1.000
    O33     O    0.54639   0.14478   0.44458   1.000
    O34     O    0.36117   0.39508   0.91371   1.000
    O35     O    0.86116   0.39508   0.91370   1.000
    O36     O    0.21303   0.30006   0.85541   1.000
    O37     O    0.71302   0.30006   0.85540   1.000
    O38     O    0.02794   0.51846   0.60517   1.000
    O39     O    0.52793   0.51846   0.60510   1.000
    O40     O    0.37951   0.55545   0.70010   1.000
    O41     O    0.87951   0.55545   0.70010   1.000
    Ts42    Ts   0.89580   0.53922   0.50806   1.000
    Ts43    Ts   0.89579   0.46008   0.49188   1.000
    Ts44    Ts   0.06244   0.96849   0.46019   1.000
    Ts45    Ts   0.06244   0.03143   0.53937   1.000
    Ts46    Ts   0.56244   0.96849   0.46019   1.000
    Ts47    Ts   0.56243   0.03143   0.53937   1.000
    Ts48    Ts   0.22877   0.49208   0.03168   1.000
    Ts49    Ts   0.22879   0.50839   0.96888   1.000
    Ts50    Ts   0.72876   0.49208   0.03168   1.000
    Ts51    Ts   0.72879   0.50839   0.96888   1.000
    Ts52    Ts   0.39581   0.53922   0.50807   1.000
    Ts53    Ts   0.39579   0.46008   0.49188   1.000
    Og54    Og   0.16708   0.82647   0.53812   1.000
    Og55    Og   0.66706   0.82646   0.53781   1.000
    Og56    Og   0.33373   0.71172   0.17360   1.000
    Og57    Og   0.83372   0.71172   0.17360   1.000
    Og58    Og   0.50019   0.46149   0.28823   1.000
    Og59    Og   0.00018   0.46150   0.28823   1.000
    Og60    Og   0.16707   0.17345   0.46180   1.000
    Og61    Og   0.66705   0.17345   0.46181   1.000
    Og62    Og   0.33371   0.28847   0.82662   1.000
    Og63    Og   0.83371   0.28847   0.82662   1.000
    Og64    Og   0.50020   0.53832   0.71184   1.000
    Og65    Og   0.00020   0.53832   0.71182   1.000
loop_
    _geom_bond_atom_site_label_1
    _geom_bond_atom_site_label_2
    _geom_bond_distance
    _geom_bond_site_symmetry_2
    _ccdc_geom_bond_type
    Zn3    O22       1.98873      .   S
    Zn3    O34       1.98889  1_554   S
    Zn4    O23       1.98872      .   S
    Zn4    O35       1.98893  1_554   S
    O22    C8        1.30204      .   S
    O23    C9        1.30204      .   S
    O25    C9        1.24444      .   S
    O24    C8        1.24442      .   S
    O28    C10       1.24441      .   S
    O29    C11       1.24440      .   S
    C11    O26       1.30212  1_655   S
    C10    O27       1.30199      .   S
    O27    Zn5       1.98925      .   S
    O26    Zn0       1.98937  1_455   S
    O33    C13       1.24450      .   S
    O32    C12       1.24450      .   S
    C12    O30       1.30193      .   S
    C13    O31       1.30194      .   S
    O31    Zn2       1.98861  1_545   S
    O30    Zn1       1.98861  1_545   S
    Zn1    O18       1.98857      .   S
    Zn2    O19       1.98855      .   S
    Zn0    O38       1.98925  1_655   S
    Zn5    O39       1.98830      .   S
    O18    C6        1.30191      .   S
    O19    C7        1.30195      .   S
    C7     O21       1.24449      .   S
    C6     O20       1.24449      .   S
    O39    C16       1.30295      .   S
    O38    C17       1.30174  1_455   S
    C17    O41       1.24444      .   S
    C16    O40       1.24442      .   S
    C15    O37       1.24444      .   S
    C15    O35       1.30206      .   S
    C14    O36       1.24444      .   S
    C14    O34       1.30208      .   S
    Zn0    Ts42      0.67911      .   S
    Zn0    Ts43      0.67886      .   S
    Zn1    Ts44      0.67901      .   S
    Zn1    Ts45      0.67912  1_565   S
    Zn2    Ts46      0.67901      .   S
    Zn2    Ts47      0.67908  1_565   S
    Zn3    Ts48      0.67927      .   S
    Zn3    Ts49      0.67922  1_554   S
    Zn4    Ts50      0.67924      .   S
    Zn4    Ts51      0.67923  1_554   S
    Zn5    Ts52      0.67911      .   S
    Zn5    Ts53      0.67887      .   S
    C6     Og54      0.50358      .   S
    C7     Og55      0.50173      .   S
    C8     Og56      0.50357      .   S
    C9     Og57      0.50357      .   S
    C10    Og58      0.50362      .   S
    C11    Og59      0.50375  1_655   S
    C12    Og60      0.50358      .   S
    C13    Og61      0.50358      .   S
    C14    Og62      0.50360      .   S
    C15    Og63      0.50357      .   S
    C16    Og64      0.50357      .   S
    C17    Og65      0.50374  1_655   S
