# CIF file generated by openbabel 2.4.90, see http://openbabel.sf.net
data_I
_chemical_name_common ''
_cell_length_a 12.489
_cell_length_b 15.682
_cell_length_c 15.687
_cell_angle_alpha 120.01
_cell_angle_beta 90.011
_cell_angle_gamma 89.908
_space_group_name_H-M_alt 'P 1'
_space_group_name_Hall 'P 1'
loop_
    _symmetry_equiv_pos_as_xyz
    x,y,z
loop_
    _atom_site_label
    _atom_site_type_symbol
    _atom_site_fract_x
    _atom_site_fract_y
    _atom_site_fract_z
    _atom_site_occupancy
    C0      C    0.14407   0.85317   0.53873   1.000
    C1      C    0.64406   0.85316   0.53872   1.000
    C2      C    0.31072   0.68567   0.14697   1.000
    C3      C    0.81072   0.68567   0.14697   1.000
    C4      C    0.47723   0.46083   0.31429   1.000
    C5      C    0.97723   0.46083   0.31429   1.000
    C6      C    0.14408   0.14677   0.46115   1.000
    C7      C    0.64407   0.14678   0.46116   1.000
    C8      C    0.31069   0.31454   0.85332   1.000
    C9      C    0.81069   0.31454   0.85332   1.000
    C10     C    0.47724   0.53887   0.68573   1.000
    C11     C    0.97723   0.53887   0.68570   1.000
