# CIF file generated by openbabel 2.4.90, see http://openbabel.sf.net
data_I
_chemical_name_common ''
_cell_length_a 12.489
_cell_length_b 15.682
_cell_length_c 15.687
_cell_angle_alpha 120.01
_cell_angle_beta 90.011
_cell_angle_gamma 89.908
_space_group_name_H-M_alt 'P 1'
_space_group_name_Hall 'P 1'
loop_
    _symmetry_equiv_pos_as_xyz
    x,y,z
loop_
    _atom_site_label
    _atom_site_type_symbol
    _atom_site_fract_x
    _atom_site_fract_y
    _atom_site_fract_z
    _atom_site_occupancy
    N0      N    0.77608   0.69504   0.53135   1.000
    N1      N    0.10900   0.53181   0.83630   1.000
    N2      N    0.44274   0.83595   0.30470   1.000
    N3      N    0.27609   0.69504   0.53145   1.000
    N4      N    0.60894   0.46848   0.16370   1.000
    N5      N    0.10895   0.46848   0.16371   1.000
    N6      N    0.60899   0.53181   0.83630   1.000
    N7      N    0.94274   0.83595   0.30470   1.000
    N8      N    0.77602   0.30468   0.46860   1.000
    N9      N    0.44275   0.16380   0.69517   1.000
    N10     N    0.27603   0.30468   0.46859   1.000
    N11     N    0.94275   0.16380   0.69518   1.000
    Zr12    Zr   0.78979   0.50012   0.00018   1.000
    O13     O    0.72560   0.51113   0.94746   1.000
    O14     O    0.72558   0.48918   0.05286   1.000
    O15     O    0.84189   0.35987   0.87720   1.000
    O16     O    0.84189   0.64023   0.12299   1.000
    Zr17    Zr   0.45642   0.49978   0.49997   1.000
    O18     O    0.39244   0.43614   0.48909   1.000
    O19     O    0.39246   0.56341   0.51088   1.000
    O20     O    0.50838   0.51735   0.64029   1.000
    O21     O    0.50836   0.48246   0.35971   1.000
    Zr22    Zr   0.12320   0.99996   0.49989   1.000
    O23     O    0.17527   0.87702   0.51726   1.000
    O24     O    0.17525   0.12284   0.48263   1.000
    O25     O    0.05918   0.94716   0.43622   1.000
    O26     O    0.05918   0.05273   0.56354   1.000
    Zr27    Zr   0.95642   0.49978   0.49998   1.000
    O28     O    0.00836   0.48247   0.35971   1.000
    O29     O    0.00838   0.51735   0.64029   1.000
    O30     O    0.89244   0.43614   0.48910   1.000
    O31     O    0.89245   0.56341   0.51086   1.000
    Zr32    Zr   0.62320   0.99996   0.49989   1.000
    O33     O    0.55917   0.05273   0.56353   1.000
    O34     O    0.55917   0.94716   0.43622   1.000
    O35     O    0.67526   0.87702   0.51712   1.000
    O36     O    0.67524   0.12285   0.48263   1.000
    Zr37    Zr   0.28980   0.50012   0.00018   1.000
    O38     O    0.34189   0.35987   0.87720   1.000
    O39     O    0.34189   0.64023   0.12300   1.000
    O40     O    0.22559   0.48918   0.05286   1.000
    O41     O    0.22561   0.51113   0.94746   1.000
loop_
    _geom_bond_atom_site_label_1
    _geom_bond_atom_site_label_2
    _geom_bond_distance
    _geom_bond_site_symmetry_2
    _ccdc_geom_bond_type
    Zr12   O13       1.22415  1_554   S
    N6     O13       2.41451      .   S
    Zr12   O14       1.22385      .   S
    N4     O14       2.41210      .   S
    Zr12   O15       2.17576  1_554   S
    N11    O15       3.22504      .   S
    Zr12   O16       2.17549      .   S
    N7     O16       3.22357      .   S
    Zr17   O18       1.22304      .   S
    N10    O18       2.41113      .   S
    Zr17   O19       1.22059      .   S
    N3     O19       2.40872      .   S
    Zr17   O20       2.17604      .   S
    N6     O20       3.22297      .   S
    Zr17   O21       2.17667      .   S
    N4     O21       3.22589      .   S
    Zr22   O23       2.17611      .   S
    N3     O23       3.22528      .   S
    Zr22   O24       2.17617  1_565   S
    N10    O24       3.22538      .   S
    Zr22   O25       1.22359      .   S
    N7     O25       2.41258  1_655   S
    Zr22   O26       1.22178  1_565   S
    N11    O26       2.40990  1_655   S
    Zr27   O28       2.17676  1_655   S
    N5     O28       3.22588      .   S
    Zr27   O29       2.17596  1_655   S
    N1     O29       3.22302      .   S
    Zr27   O30       1.22304      .   S
    N8     O30       2.41112      .   S
    Zr27   O31       1.22071      .   S
    N0     O31       2.40906      .   S
    Zr32   O33       1.22174  1_565   S
    N9     O33       2.40983      .   S
    Zr32   O34       1.22357      .   S
    N2     O34       2.41253      .   S
    Zr32   O35       2.17490      .   S
    N0     O35       3.22562      .   S
    Zr32   O36       2.17617  1_565   S
    N8     O36       3.22539      .   S
    Zr37   O38       2.17577  1_554   S
    N9     O38       3.22504      .   S
    Zr37   O39       2.17546      .   S
    N2     O39       3.22353      .   S
    Zr37   O40       1.22386      .   S
    N5     O40       2.41211      .   S
    Zr37   O41       1.22415  1_554   S
    N1     O41       2.41452      .   S
