# CIF file generated by openbabel 2.4.90, see http://openbabel.sf.net
data_I
_chemical_name_common ''
_cell_length_a 12.489
_cell_length_b 15.682
_cell_length_c 15.687
_cell_angle_alpha 120.01
_cell_angle_beta 90.011
_cell_angle_gamma 89.908
_space_group_name_H-M_alt 'P 1'
_space_group_name_Hall 'P 1'
loop_
    _symmetry_equiv_pos_as_xyz
    x,y,z
loop_
    _atom_site_label
    _atom_site_type_symbol
    _atom_site_fract_x
    _atom_site_fract_y
    _atom_site_fract_z
    _atom_site_occupancy
    Zr0     Zr   0.42561   0.49959   0.49995   1.000
    Zr1     Zr   0.92561   0.49959   0.49995   1.000
    Zr2     Zr   0.09223   0.99993   0.49975   1.000
    Zr3     Zr   0.59223   0.99993   0.49975   1.000
    Zr4     Zr   0.25868   0.50023   0.00029   1.000
    Zr5     Zr   0.75867   0.50023   0.00029   1.000
    Zr6     Zr   0.14407   0.85317   0.53873   1.000
    Zr7     Zr   0.64406   0.85316   0.53872   1.000
    Zr8     Zr   0.31072   0.68567   0.14697   1.000
    Zr9     Zr   0.81072   0.68567   0.14697   1.000
    Zr10    Zr   0.47723   0.46083   0.31429   1.000
    Zr11    Zr   0.97723   0.46083   0.31429   1.000
    Zr12    Zr   0.14408   0.14677   0.46115   1.000
    Zr13    Zr   0.64407   0.14678   0.46116   1.000
    Zr14    Zr   0.31069   0.31454   0.85332   1.000
    Zr15    Zr   0.81069   0.31454   0.85332   1.000
    Zr16    Zr   0.47724   0.53887   0.68573   1.000
    Zr17    Zr   0.97723   0.53887   0.68570   1.000
    Zr18    Zr   0.19462   0.91340   0.51844   1.000
    Zr19    Zr   0.69461   0.91340   0.51844   1.000
    Zr20    Zr   0.04637   0.85534   0.55530   1.000
    Zr21    Zr   0.54636   0.85534   0.55531   1.000
    Zr22    Zr   0.36127   0.60497   0.08665   1.000
    Zr23    Zr   0.86126   0.60497   0.08665   1.000
    Zr24    Zr   0.21303   0.70029   0.14492   1.000
    Zr25    Zr   0.71302   0.70029   0.14492   1.000
    Zr26    Zr   0.02791   0.48079   0.39471   1.000
    Zr27    Zr   0.52790   0.48079   0.39471   1.000
    Zr28    Zr   0.37954   0.44446   0.29992   1.000
    Zr29    Zr   0.87953   0.44446   0.29992   1.000
    Zr30    Zr   0.19467   0.08632   0.48128   1.000
    Zr31    Zr   0.69466   0.08632   0.48128   1.000
    Zr32    Zr   0.04639   0.14478   0.44459   1.000
    Zr33    Zr   0.54639   0.14478   0.44458   1.000
    Zr34    Zr   0.36117   0.39508   0.91371   1.000
    Zr35    Zr   0.86116   0.39508   0.91370   1.000
    Zr36    Zr   0.21303   0.30006   0.85541   1.000
    Zr37    Zr   0.71302   0.30006   0.85540   1.000
    Zr38    Zr   0.02794   0.51846   0.60517   1.000
    Zr39    Zr   0.52793   0.51846   0.60510   1.000
    Zr40    Zr   0.37951   0.55545   0.70010   1.000
    Zr41    Zr   0.87951   0.55545   0.70010   1.000
    O42     O    0.30997   0.55260   0.04347   1.000
    O43     O    0.30992   0.44765   0.95700   1.000
    O44     O    0.80997   0.55260   0.04347   1.000
    O45     O    0.80992   0.44765   0.95699   1.000
    O46     O    0.33600   0.64532   0.11681   1.000
    O47     O    0.83599   0.64532   0.11681   1.000
    O48     O    0.76187   0.69298   0.14594   1.000
    O49     O    0.26188   0.69298   0.14594   1.000
    O50     O    0.42839   0.45265   0.30711   1.000
    O51     O    0.92838   0.45265   0.30711   1.000
    O52     O    0.00257   0.47081   0.35450   1.000
    O53     O    0.50257   0.47081   0.35450   1.000
    O54     O    0.47676   0.49019   0.44733   1.000
    O55     O    0.97676   0.49019   0.44733   1.000
    O56     O    0.59523   0.14578   0.45287   1.000
    O57     O    0.09524   0.14578   0.45287   1.000
    O58     O    0.16938   0.11655   0.47121   1.000
    O59     O    0.66937   0.11655   0.47122   1.000
    O60     O    0.64345   0.04313   0.49051   1.000
    O61     O    0.14345   0.04313   0.49051   1.000
    O62     O    0.14343   0.95667   0.50909   1.000
    O63     O    0.64342   0.95667   0.50909   1.000
    O64     O    0.97677   0.50902   0.55256   1.000
    O65     O    0.47677   0.50902   0.55252   1.000
    O66     O    0.16934   0.88328   0.52858   1.000
    O67     O    0.66933   0.88328   0.52858   1.000
    O68     O    0.59521   0.85425   0.54701   1.000
    O69     O    0.09522   0.85425   0.54702   1.000
    O70     O    0.50259   0.52867   0.64541   1.000
    O71     O    0.00259   0.52867   0.64543   1.000
    O72     O    0.92837   0.54716   0.69290   1.000
    O73     O    0.42838   0.54716   0.69291   1.000
    O74     O    0.76185   0.30730   0.85436   1.000
    O75     O    0.83592   0.35481   0.88351   1.000
    O76     O    0.26186   0.30730   0.85436   1.000
    O77     O    0.33593   0.35481   0.88351   1.000
    N78     N    0.77608   0.69504   0.53135   1.000
    O79     O    0.82849   0.62704   0.52173   1.000
    O80     O    0.72732   0.75407   0.53435   1.000
    N81     N    0.10900   0.53181   0.83630   1.000
    O82     O    0.16143   0.52214   0.89474   1.000
    O83     O    0.06034   0.53492   0.78059   1.000
    N84     N    0.44274   0.83595   0.30470   1.000
    O85     O    0.39399   0.78035   0.24581   1.000
    O86     O    0.49514   0.89436   0.37255   1.000
    N87     N    0.27609   0.69504   0.53145   1.000
    O88     O    0.32850   0.62704   0.52179   1.000
    O89     O    0.22733   0.75408   0.53463   1.000
    N90     N    0.60894   0.46848   0.16370   1.000
    O91     O    0.56030   0.46515   0.21945   1.000
    O92     O    0.66138   0.47825   0.10554   1.000
    N93     N    0.10895   0.46848   0.16371   1.000
    O94     O    0.16138   0.47825   0.10554   1.000
    O95     O    0.06030   0.46515   0.21945   1.000
    N96     N    0.60899   0.53181   0.83630   1.000
    O97     O    0.56034   0.53493   0.78060   1.000
    O98     O    0.66142   0.52214   0.89474   1.000
    N99     N    0.94274   0.83595   0.30470   1.000
    O100    O    0.89398   0.78035   0.24581   1.000
    O101    O    0.99515   0.89436   0.37255   1.000
    N102    N    0.77602   0.30468   0.46860   1.000
    O103    O    0.82845   0.37250   0.47822   1.000
    O104    O    0.72729   0.24573   0.46537   1.000
    N105    N    0.44275   0.16380   0.69517   1.000
    O106    O    0.39399   0.21962   0.75422   1.000
    O107    O    0.49514   0.10549   0.62717   1.000
    N108    N    0.27603   0.30468   0.46859   1.000
    O109    O    0.22730   0.24573   0.46536   1.000
    O110    O    0.32846   0.37250   0.47822   1.000
    N111    N    0.94275   0.16380   0.69518   1.000
    O112    O    0.99515   0.10549   0.62718   1.000
    O113    O    0.89399   0.21962   0.75423   1.000
loop_
    _geom_bond_atom_site_label_1
    _geom_bond_atom_site_label_2
    _geom_bond_distance
    _geom_bond_site_symmetry_2
    _ccdc_geom_bond_type
    Zr4    O42       0.99437      .   S
    Zr22   O42       0.99437      .   S
    Zr4    O43       0.99444  1_554   S
    Zr34   O43       0.99444      .   S
    Zr5    O44       0.99436      .   S
    Zr23   O44       0.99436      .   S
    Zr5    O45       0.99447  1_554   S
    Zr35   O45       0.99447      .   S
    Zr22   O46       0.65102      .   S
    Zr8    O46       0.65102      .   S
    Zr23   O47       0.65102      .   S
    Zr9    O47       0.65102      .   S
    Zr25   O48       0.62222      .   S
    Zr9    O48       0.62222      .   S
    Zr24   O49       0.62221      .   S
    Zr8    O49       0.62221      .   S
    Zr28   O50       0.62221      .   S
    Zr10   O50       0.62221      .   S
    Zr29   O51       0.62220      .   S
    Zr11   O51       0.62220      .   S
    Zr11   O52       0.65106  1_655   S
    Zr26   O52       0.65106      .   S
    Zr10   O53       0.65099      .   S
    Zr27   O53       0.65099      .   S
    Zr27   O54       0.99463      .   S
    Zr0    O54       0.99463      .   S
    Zr26   O55       0.99469  1_455   S
    Zr1    O55       0.99469      .   S
    Zr33   O56       0.62225      .   S
    Zr13   O56       0.62225      .   S
    Zr32   O57       0.62225      .   S
    Zr12   O57       0.62225      .   S
    Zr12   O58       0.65096      .   S
    Zr30   O58       0.65096      .   S
    Zr13   O59       0.65097      .   S
    Zr31   O59       0.65097      .   S
    Zr31   O60       0.99431      .   S
    Zr3    O60       0.99431  1_565   S
    Zr30   O61       0.99430      .   S
    Zr2    O61       0.99430  1_565   S
    Zr2    O62       0.99428      .   S
    Zr18   O62       0.99428      .   S
    Zr3    O63       0.99428      .   S
    Zr19   O63       0.99428      .   S
    Zr1    O64       0.99462      .   S
    Zr38   O64       0.99462  1_455   S
    Zr0    O65       0.99415      .   S
    Zr39   O65       0.99415      .   S
    Zr18   O66       0.65095      .   S
    Zr6    O66       0.65095      .   S
    Zr19   O67       0.65097      .   S
    Zr7    O67       0.65097      .   S
    Zr7    O68       0.62224      .   S
    Zr21   O68       0.62224      .   S
    Zr6    O69       0.62224      .   S
    Zr20   O69       0.62224      .   S
    Zr39   O70       0.65148      .   S
    Zr16   O70       0.65148      .   S
    Zr38   O71       0.65087      .   S
    Zr17   O71       0.65087  1_655   S
    Zr17   O72       0.62222      .   S
    Zr41   O72       0.62222      .   S
    Zr16   O73       0.62221      .   S
    Zr40   O73       0.62221      .   S
    Zr15   O74       0.62222      .   S
    Zr37   O74       0.62222      .   S
    Zr15   O75       0.65103      .   S
    Zr35   O75       0.65103      .   S
    Zr14   O76       0.62222      .   S
    Zr36   O76       0.62222      .   S
    Zr14   O77       0.65104      .   S
    Zr34   O77       0.65104      .   S
    N78    O79       1.19386      .   S
    Zr1    O79       2.21174      .   S
    N78    O80       1.08840      .   S
    Zr7    O80       1.84090      .   S
    N81    O82       1.19603      .   S
    Zr4    O82       2.21404  1_554   S
    N81    O83       1.08529      .   S
    Zr17   O83       1.84075  1_655   S
    N84    O85       1.08638      .   S
    Zr8    O85       1.84156      .   S
    N84    O86       1.19444      .   S
    Zr3    O86       2.21211      .   S
    N87    O88       1.19364      .   S
    Zr0    O88       2.21153      .   S
    N87    O89       1.08734      .   S
    Zr6    O89       1.84255      .   S
    N90    O91       1.08746      .   S
    Zr10   O91       1.84273      .   S
    N90    O92       1.19382      .   S
    Zr5    O92       2.21191      .   S
    N93    O94       1.19383      .   S
    Zr4    O94       2.21197      .   S
    N93    O95       1.08738      .   S
    Zr11   O95       1.84285  1_655   S
    N96    O97       1.08517      .   S
    Zr16   O97       1.84037      .   S
    N96    O98       1.19602      .   S
    Zr5    O98       2.21406  1_554   S
    N99    O100      1.08640      .   S
    Zr9    O100      1.84158      .   S
    N99    O101      1.19448      .   S
    Zr2    O101      2.21213  1_455   S
    N102   O103      1.19345      .   S
    Zr1    O103      2.21098      .   S
    N102   O104      1.08741      .   S
    Zr13   O104      1.84263      .   S
    N105   O106      1.08747      .   S
    Zr14   O106      1.84270      .   S
    N105   O107      1.19362      .   S
    Zr3    O107      2.21147  1_565   S
    N108   O109      1.08740      .   S
    Zr12   O109      1.84261      .   S
    N108   O110      1.19346      .   S
    Zr0    O110      2.21100      .   S
    N111   O112      1.19364      .   S
    Zr2    O112      2.21155  1_465   S
    N111   O113      1.08748      .   S
    Zr15   O113      1.84268      .   S
