# CIF file generated by openbabel 2.4.90, see http://openbabel.sf.net
data_I
_chemical_name_common ''
_cell_length_a 20.752
_cell_length_b 20.667
_cell_length_c 14.043
_cell_angle_alpha 89.845
_cell_angle_beta 89.931
_cell_angle_gamma 89.747
_space_group_name_H-M_alt 'P 1'
_space_group_name_Hall 'P 1'
loop_
    _symmetry_equiv_pos_as_xyz
    x,y,z
loop_
    _atom_site_label
    _atom_site_type_symbol
    _atom_site_fract_x
    _atom_site_fract_y
    _atom_site_fract_z
    _atom_site_occupancy
    Zr0     Zr   0.43776   0.06227   0.62802   1.000
    Zr1     Zr   0.43775   0.56226   0.62802   1.000
    Zr2     Zr   0.93775   0.06227   0.62802   1.000
    Zr3     Zr   0.93775   0.56226   0.62802   1.000
    Zr4     Zr   0.06324   0.43769   0.12761   1.000
    Zr5     Zr   0.06324   0.93768   0.12761   1.000
    Zr6     Zr   0.56323   0.43769   0.12761   1.000
    Zr7     Zr   0.56323   0.93768   0.12761   1.000
    Zr8     Zr   0.43814   0.43919   0.87314   1.000
    Zr9     Zr   0.43814   0.93919   0.87314   1.000
    Zr10    Zr   0.93813   0.43919   0.87314   1.000
    Zr11    Zr   0.93813   0.93919   0.87314   1.000
    Zr12    Zr   0.06230   0.06280   0.37457   1.000
    Zr13    Zr   0.06230   0.56279   0.37457   1.000
    Zr14    Zr   0.56229   0.06280   0.37457   1.000
    Zr15    Zr   0.56229   0.56279   0.37457   1.000
    Zr16    Zr   0.39738   0.03749   0.41899   1.000
    Zr17    Zr   0.39737   0.53748   0.41899   1.000
    Zr18    Zr   0.89737   0.03749   0.41899   1.000
    Zr19    Zr   0.89737   0.53748   0.41899   1.000
    Zr20    Zr   0.10285   0.46277   0.91810   1.000
    Zr21    Zr   0.10285   0.96276   0.91810   1.000
    Zr22    Zr   0.60285   0.46277   0.91816   1.000
    Zr23    Zr   0.60285   0.96276   0.91810   1.000
    Zr24    Zr   0.46152   0.39499   0.67092   1.000
    Zr25    Zr   0.46151   0.89499   0.67092   1.000
    Zr26    Zr   0.96151   0.39499   0.67092   1.000
    Zr27    Zr   0.96151   0.89498   0.67092   1.000
    Zr28    Zr   0.03905   0.10426   0.16696   1.000
    Zr29    Zr   0.03904   0.60425   0.16690   1.000
    Zr30    Zr   0.53904   0.10426   0.16696   1.000
    Zr31    Zr   0.53904   0.60426   0.16696   1.000
    Zr32    Zr   0.10286   0.03890   0.58303   1.000
    Zr33    Zr   0.10286   0.53889   0.58303   1.000
    Zr34    Zr   0.60286   0.03890   0.58303   1.000
    Zr35    Zr   0.60286   0.53889   0.58303   1.000
    Zr36    Zr   0.39851   0.46344   0.08427   1.000
    Zr37    Zr   0.39851   0.96343   0.08427   1.000
    Zr38    Zr   0.89850   0.46344   0.08427   1.000
    Zr39    Zr   0.89850   0.96343   0.08427   1.000
    Zr40    Zr   0.03850   0.39632   0.33419   1.000
    Zr41    Zr   0.03850   0.89631   0.33419   1.000
    Zr42    Zr   0.53850   0.39632   0.33419   1.000
    Zr43    Zr   0.53849   0.89631   0.33419   1.000
    Zr44    Zr   0.46335   0.10596   0.83067   1.000
    Zr45    Zr   0.46335   0.60595   0.83067   1.000
    Zr46    Zr   0.96335   0.10596   0.83067   1.000
    Zr47    Zr   0.96334   0.60595   0.83067   1.000
    Zr48    Zr   0.18629   0.00002   0.25155   1.000
    Zr49    Zr   0.18629   0.50001   0.25155   1.000
    Zr50    Zr   0.68628   0.00002   0.25155   1.000
    Zr51    Zr   0.68628   0.50001   0.25155   1.000
    Zr52    Zr   0.31386   0.00236   0.75170   1.000
    Zr53    Zr   0.31386   0.50236   0.75174   1.000
    Zr54    Zr   0.81386   0.00236   0.75174   1.000
    Zr55    Zr   0.81385   0.50236   0.75170   1.000
    Zr56    Zr   0.99840   0.18487   0.50012   1.000
    Zr57    Zr   0.99840   0.68486   0.50012   1.000
    Zr58    Zr   0.49840   0.18487   0.50012   1.000
    Zr59    Zr   0.49839   0.68486   0.50012   1.000
    Zr60    Zr   0.00076   0.31629   0.00021   1.000
    Zr61    Zr   0.00076   0.81628   0.00021   1.000
    Zr62    Zr   0.50075   0.31629   0.00021   1.000
    Zr63    Zr   0.50075   0.81628   0.00021   1.000
    Zr64    Zr   0.36993   0.04101   0.49900   1.000
    Zr65    Zr   0.36993   0.54100   0.49900   1.000
    Zr66    Zr   0.86993   0.04101   0.49900   1.000
    Zr67    Zr   0.86993   0.54100   0.49900   1.000
    Zr68    Zr   0.15807   0.04182   0.30360   1.000
    Zr69    Zr   0.15807   0.54181   0.30360   1.000
    Zr70    Zr   0.65806   0.04182   0.30360   1.000
    Zr71    Zr   0.65806   0.54181   0.30360   1.000
    Zr72    Zr   0.45788   0.04716   0.40861   1.000
    Zr73    Zr   0.45788   0.54715   0.40861   1.000
    Zr74    Zr   0.95787   0.04716   0.40861   1.000
    Zr75    Zr   0.95787   0.54715   0.40861   1.000
    Zr76    Zr   0.13059   0.45850   0.99863   1.000
    Zr77    Zr   0.13059   0.95850   0.99863   1.000
    Zr78    Zr   0.63058   0.45850   0.99863   1.000
    Zr79    Zr   0.63058   0.95849   0.99863   1.000
    Zr80    Zr   0.34197   0.46056   0.80410   1.000
    Zr81    Zr   0.34197   0.96056   0.80413   1.000
    Zr82    Zr   0.84196   0.46056   0.80410   1.000
    Zr83    Zr   0.84196   0.96056   0.80410   1.000
    Zr84    Zr   0.04225   0.45338   0.90847   1.000
    Zr85    Zr   0.04225   0.95337   0.90847   1.000
    Zr86    Zr   0.54225   0.45338   0.90847   1.000
    Zr87    Zr   0.54225   0.95337   0.90847   1.000
    Zr88    Zr   0.45530   0.36509   0.74960   1.000
    Zr89    Zr   0.45530   0.86508   0.74960   1.000
    Zr90    Zr   0.95529   0.36509   0.74960   1.000
    Zr91    Zr   0.95529   0.86508   0.74960   1.000
    Zr92    Zr   0.45602   0.15630   0.55036   1.000
    Zr93    Zr   0.45602   0.65629   0.55036   1.000
    Zr94    Zr   0.95602   0.15630   0.55036   1.000
    Zr95    Zr   0.95602   0.65629   0.55036   1.000
    Zr96    Zr   0.45448   0.45671   0.66617   1.000
    Zr97    Zr   0.45448   0.95670   0.66617   1.000
    Zr98    Zr   0.95447   0.45671   0.66617   1.000
    Zr99    Zr   0.95447   0.95670   0.66617   1.000
    Zr100   Zr   0.04425   0.13290   0.24665   1.000
    Zr101   Zr   0.04425   0.63289   0.24665   1.000
    Zr102   Zr   0.54424   0.13290   0.24665   1.000
    Zr103   Zr   0.54424   0.63289   0.24665   1.000
    Zr104   Zr   0.04324   0.34394   0.05100   1.000
    Zr105   Zr   0.04324   0.84393   0.05109   1.000
    Zr106   Zr   0.54323   0.34394   0.05109   1.000
    Zr107   Zr   0.54324   0.84393   0.05109   1.000
    Zr108   Zr   0.04734   0.04305   0.15921   1.000
    Zr109   Zr   0.04734   0.54304   0.15921   1.000
    Zr110   Zr   0.54734   0.04305   0.15921   1.000
    Zr111   Zr   0.54734   0.54304   0.15921   1.000
    Zr112   Zr   0.13094   0.04400   0.50291   1.000
    Zr113   Zr   0.13094   0.54399   0.50291   1.000
    Zr114   Zr   0.63094   0.04400   0.50291   1.000
    Zr115   Zr   0.63093   0.54400   0.50291   1.000
    Zr116   Zr   0.34195   0.04426   0.69975   1.000
    Zr117   Zr   0.34195   0.54425   0.69975   1.000
    Zr118   Zr   0.84194   0.04426   0.69975   1.000
    Zr119   Zr   0.84194   0.54425   0.69975   1.000
    Zr120   Zr   0.04187   0.04687   0.59175   1.000
    Zr121   Zr   0.04187   0.54686   0.59175   1.000
    Zr122   Zr   0.54186   0.04687   0.59175   1.000
    Zr123   Zr   0.54186   0.54686   0.59175   1.000
    Zr124   Zr   0.37184   0.46096   0.00287   1.000
    Zr125   Zr   0.37184   0.96095   0.00287   1.000
    Zr126   Zr   0.87183   0.46096   0.00287   1.000
    Zr127   Zr   0.87183   0.96095   0.00287   1.000
    Zr128   Zr   0.15839   0.45816   0.19973   1.000
    Zr129   Zr   0.15839   0.95815   0.19973   1.000
    Zr130   Zr   0.65838   0.45816   0.19973   1.000
    Zr131   Zr   0.65838   0.95815   0.19973   1.000
    Zr132   Zr   0.45877   0.45282   0.09566   1.000
    Zr133   Zr   0.45877   0.95282   0.09566   1.000
    Zr134   Zr   0.95876   0.45282   0.09566   1.000
    Zr135   Zr   0.95876   0.95282   0.09566   1.000
    Zr136   Zr   0.04424   0.36731   0.25482   1.000
    Zr137   Zr   0.04424   0.86731   0.25482   1.000
    Zr138   Zr   0.54423   0.36731   0.25482   1.000
    Zr139   Zr   0.54423   0.86731   0.25482   1.000
    Zr140   Zr   0.04120   0.15727   0.44919   1.000
    Zr141   Zr   0.04120   0.65726   0.44919   1.000
    Zr142   Zr   0.54120   0.15727   0.44919   1.000
    Zr143   Zr   0.54119   0.65726   0.44919   1.000
    Zr144   Zr   0.04709   0.45749   0.34150   1.000
    Zr145   Zr   0.04709   0.95748   0.34150   1.000
    Zr146   Zr   0.54708   0.45749   0.34150   1.000
    Zr147   Zr   0.54708   0.95748   0.34150   1.000
    Zr148   Zr   0.45792   0.13526   0.75130   1.000
    Zr149   Zr   0.45791   0.63526   0.75130   1.000
    Zr150   Zr   0.95791   0.13526   0.75130   1.000
    Zr151   Zr   0.95791   0.63526   0.75130   1.000
    Zr152   Zr   0.45818   0.34473   0.94993   1.000
    Zr153   Zr   0.45818   0.84472   0.94993   1.000
    Zr154   Zr   0.95817   0.34473   0.94993   1.000
    Zr155   Zr   0.95817   0.84472   0.94993   1.000
    Zr156   Zr   0.45519   0.04459   0.83720   1.000
    Zr157   Zr   0.45519   0.54458   0.83720   1.000
    Zr158   Zr   0.95518   0.04459   0.83720   1.000
    Zr159   Zr   0.95518   0.54458   0.83720   1.000
    O160    O    0.02200   0.33011   0.02560   1.000
    O161    O    0.97946   0.33051   0.97507   1.000
    O162    O    0.02200   0.83011   0.02565   1.000
    O163    O    0.97946   0.83050   0.97507   1.000
    O164    O    0.52199   0.33011   0.02565   1.000
    O165    O    0.47946   0.33051   0.97507   1.000
    O166    O    0.52199   0.83011   0.02565   1.000
    O167    O    0.47946   0.83050   0.97507   1.000
    O168    O    0.88517   0.96219   0.04357   1.000
    O169    O    0.90498   0.95007   0.93800   1.000
    O170    O    0.88517   0.46220   0.04357   1.000
    O171    O    0.90498   0.45007   0.93800   1.000
    O172    O    0.38517   0.96219   0.04357   1.000
    O173    O    0.40499   0.95007   0.93800   1.000
    O174    O    0.38517   0.46220   0.04357   1.000
    O175    O    0.40499   0.45008   0.93800   1.000
    O176    O    0.05324   0.39081   0.08930   1.000
    O177    O    0.55323   0.89081   0.08935   1.000
    O178    O    0.55323   0.39081   0.08935   1.000
    O179    O    0.05324   0.89081   0.08935   1.000
    O180    O    0.92863   0.45813   0.08996   1.000
    O181    O    0.42864   0.45813   0.08996   1.000
    O182    O    0.42864   0.95812   0.08996   1.000
    O183    O    0.92863   0.95812   0.08996   1.000
    O184    O    0.01100   0.44526   0.11163   1.000
    O185    O    0.51100   0.94525   0.11163   1.000
    O186    O    0.01100   0.94525   0.11163   1.000
    O187    O    0.51100   0.44526   0.11163   1.000
    O188    O    0.05529   0.49036   0.14341   1.000
    O189    O    0.11081   0.44792   0.16367   1.000
    O190    O    0.05374   0.40250   0.19121   1.000
    O191    O    0.09691   0.44809   0.06312   1.000
    O192    O    0.05529   0.99036   0.14341   1.000
    O193    O    0.11081   0.94791   0.16367   1.000
    O194    O    0.05374   0.90249   0.19121   1.000
    O195    O    0.09691   0.94809   0.06312   1.000
    O196    O    0.55528   0.49036   0.14341   1.000
    O197    O    0.61081   0.44792   0.16367   1.000
    O198    O    0.55373   0.40250   0.19121   1.000
    O199    O    0.59691   0.44809   0.06312   1.000
    O200    O    0.55528   0.99036   0.14341   1.000
    O201    O    0.61081   0.94791   0.16367   1.000
    O202    O    0.55373   0.90249   0.19121   1.000
    O203    O    0.59691   0.94809   0.06312   1.000
    O204    O    0.54319   0.57365   0.16308   1.000
    O205    O    0.54319   0.07366   0.16308   1.000
    O206    O    0.04319   0.57365   0.16305   1.000
    O207    O    0.04320   0.07366   0.16308   1.000
    O208    O    0.04165   0.61857   0.20677   1.000
    O209    O    0.04165   0.11858   0.20680   1.000
    O210    O    0.54164   0.11858   0.20680   1.000
    O211    O    0.54164   0.61858   0.20680   1.000
    O212    O    0.67233   0.97908   0.22564   1.000
    O213    O    0.67233   0.47908   0.22564   1.000
    O214    O    0.17234   0.97908   0.22564   1.000
    O215    O    0.17234   0.47908   0.22564   1.000
    O216    O    0.05327   0.09785   0.31061   1.000
    O217    O    0.05327   0.59784   0.31061   1.000
    O218    O    0.55327   0.09785   0.31061   1.000
    O219    O    0.55327   0.59784   0.31061   1.000
    O220    O    0.17218   0.02092   0.27757   1.000
    O221    O    0.17218   0.52091   0.27757   1.000
    O222    O    0.67217   0.02092   0.27757   1.000
    O223    O    0.67217   0.52091   0.27757   1.000
    O224    O    0.54136   0.88181   0.29450   1.000
    O225    O    0.54136   0.38182   0.29450   1.000
    O226    O    0.04137   0.88181   0.29450   1.000
    O227    O    0.04137   0.38182   0.29450   1.000
    O228    O    0.61018   0.05231   0.33908   1.000
    O229    O    0.11018   0.55230   0.33908   1.000
    O230    O    0.61018   0.55230   0.33908   1.000
    O231    O    0.11019   0.05231   0.33908   1.000
    O232    O    0.04280   0.42690   0.33784   1.000
    O233    O    0.04279   0.92690   0.33784   1.000
    O234    O    0.54279   0.42690   0.33784   1.000
    O235    O    0.54279   0.92690   0.33784   1.000
    O236    O    0.05470   0.51014   0.35803   1.000
    O237    O    0.05470   0.01014   0.35803   1.000
    O238    O    0.55469   0.51014   0.35803   1.000
    O239    O    0.55469   0.01014   0.35803   1.000
    O240    O    0.51009   0.55497   0.39159   1.000
    O241    O    0.55174   0.61003   0.41188   1.000
    O242    O    0.59661   0.55339   0.43874   1.000
    O243    O    0.51009   0.05498   0.39159   1.000
    O244    O    0.55174   0.11003   0.41188   1.000
    O245    O    0.59661   0.05340   0.43874   1.000
    O246    O    0.01009   0.55497   0.39159   1.000
    O247    O    0.05175   0.61003   0.41188   1.000
    O248    O    0.09662   0.55339   0.43874   1.000
    O249    O    0.01009   0.05498   0.39159   1.000
    O250    O    0.05175   0.11003   0.41188   1.000
    O251    O    0.09662   0.05340   0.43874   1.000
    O252    O    0.92762   0.54232   0.41380   1.000
    O253    O    0.92762   0.04232   0.41380   1.000
    O254    O    0.42763   0.54231   0.41380   1.000
    O255    O    0.42763   0.04232   0.41380   1.000
    O256    O    0.88365   0.03925   0.45899   1.000
    O257    O    0.38365   0.53924   0.45899   1.000
    O258    O    0.38365   0.03925   0.45899   1.000
    O259    O    0.88365   0.53924   0.45899   1.000
    O260    O    0.01980   0.17107   0.47465   1.000
    O261    O    0.01980   0.67106   0.47465   1.000
    O262    O    0.51980   0.17107   0.47465   1.000
    O263    O    0.51979   0.67106   0.47465   1.000
    O264    O    0.40384   0.05164   0.56351   1.000
    O265    O    0.40384   0.55163   0.56351   1.000
    O266    O    0.90384   0.05164   0.56351   1.000
    O267    O    0.90384   0.55163   0.56351   1.000
    O268    O    0.97721   0.17058   0.52524   1.000
    O269    O    0.47721   0.67058   0.52524   1.000
    O270    O    0.97721   0.67058   0.52524   1.000
    O271    O    0.47721   0.17058   0.52524   1.000
    O272    O    0.61690   0.04145   0.54297   1.000
    O273    O    0.11690   0.54144   0.54297   1.000
    O274    O    0.11690   0.04145   0.54297   1.000
    O275    O    0.61689   0.54144   0.54297   1.000
    O276    O    0.44689   0.10929   0.58919   1.000
    O277    O    0.44689   0.60928   0.58919   1.000
    O278    O    0.94688   0.60928   0.58919   1.000
    O279    O    0.94688   0.10929   0.58919   1.000
    O280    O    0.07236   0.04288   0.58739   1.000
    O281    O    0.07236   0.54288   0.58739   1.000
    O282    O    0.57236   0.04289   0.58739   1.000
    O283    O    0.57236   0.54288   0.58739   1.000
    O284    O    0.48981   0.05457   0.60989   1.000
    O285    O    0.98981   0.05457   0.60989   1.000
    O286    O    0.98981   0.55456   0.60989   1.000
    O287    O    0.48981   0.55456   0.60989   1.000
    O288    O    0.44612   0.50949   0.64709   1.000
    O289    O    0.38985   0.55326   0.66389   1.000
    O290    O    0.44783   0.59876   0.68966   1.000
    O291    O    0.44612   0.00949   0.64709   1.000
    O292    O    0.38985   0.05326   0.66389   1.000
    O293    O    0.44784   0.09877   0.68966   1.000
    O294    O    0.94611   0.50949   0.64709   1.000
    O295    O    0.88984   0.55326   0.66389   1.000
    O296    O    0.94783   0.59876   0.68966   1.000
    O297    O    0.94611   0.00949   0.64709   1.000
    O298    O    0.88984   0.05326   0.66389   1.000
    O299    O    0.94783   0.09877   0.68966   1.000
    O300    O    0.95799   0.92584   0.66854   1.000
    O301    O    0.95799   0.42585   0.66854   1.000
    O302    O    0.45800   0.92584   0.66854   1.000
    O303    O    0.45800   0.42585   0.66854   1.000
    O304    O    0.95840   0.88003   0.71026   1.000
    O305    O    0.95840   0.38004   0.71026   1.000
    O306    O    0.45840   0.88003   0.71026   1.000
    O307    O    0.45841   0.38004   0.71026   1.000
    O308    O    0.32791   0.02331   0.72572   1.000
    O309    O    0.32791   0.52330   0.72574   1.000
    O310    O    0.82790   0.02331   0.72574   1.000
    O311    O    0.82790   0.52330   0.72572   1.000
    O312    O    0.44672   0.40214   0.81137   1.000
    O313    O    0.44672   0.90213   0.81137   1.000
    O314    O    0.94671   0.40214   0.81137   1.000
    O315    O    0.94671   0.90213   0.81137   1.000
    O316    O    0.46064   0.12061   0.79098   1.000
    O317    O    0.96063   0.62060   0.79098   1.000
    O318    O    0.46063   0.62060   0.79098   1.000
    O319    O    0.96063   0.12061   0.79098   1.000
    O320    O    0.32792   0.98146   0.77791   1.000
    O321    O    0.82791   0.48146   0.77790   1.000
    O322    O    0.32792   0.48146   0.77792   1.000
    O323    O    0.82791   0.98146   0.77792   1.000
    O324    O    0.89005   0.94987   0.83862   1.000
    O325    O    0.89005   0.44988   0.83862   1.000
    O326    O    0.39006   0.44988   0.83862   1.000
    O327    O    0.39006   0.94987   0.83863   1.000
    O328    O    0.95926   0.07527   0.83394   1.000
    O329    O    0.45927   0.07527   0.83394   1.000
    O330    O    0.45927   0.57527   0.83394   1.000
    O331    O    0.95926   0.57527   0.83394   1.000
    O332    O    0.44667   0.99189   0.85517   1.000
    O333    O    0.44666   0.49189   0.85517   1.000
    O334    O    0.94666   0.99189   0.85517   1.000
    O335    O    0.94666   0.49189   0.85517   1.000
    O336    O    0.49019   0.44629   0.89080   1.000
    O337    O    0.44816   0.39196   0.91153   1.000
    O338    O    0.49019   0.94628   0.89080   1.000
    O339    O    0.44816   0.89195   0.91153   1.000
    O340    O    0.99019   0.44628   0.89080   1.000
    O341    O    0.94815   0.39196   0.91153   1.000
    O342    O    0.99019   0.94628   0.89080   1.000
    O343    O    0.94815   0.89195   0.91153   1.000
    O344    O    0.57255   0.45807   0.91331   1.000
    O345    O    0.57255   0.95807   0.91328   1.000
    O346    O    0.07255   0.95807   0.91328   1.000
    O347    O    0.07255   0.45807   0.91328   1.000
    O348    O    0.61671   0.96063   0.95836   1.000
    O349    O    0.11672   0.46064   0.95836   1.000
    O350    O    0.11672   0.96063   0.95836   1.000
    O351    O    0.61671   0.46064   0.95839   1.000
    O352    O    0.44631   0.44795   0.76965   1.000
    O353    O    0.44631   0.94794   0.76965   1.000
    O354    O    0.94630   0.44795   0.76965   1.000
    O355    O    0.94630   0.94794   0.76965   1.000
    O356    O    0.44647   0.05343   0.73261   1.000
    O357    O    0.44647   0.55342   0.73261   1.000
    O358    O    0.94646   0.05343   0.73261   1.000
    O359    O    0.94646   0.55342   0.73261   1.000
    N360    N    0.49906   0.32475   0.50165   1.000
    O361    O    0.51398   0.35122   0.43952   1.000
    O362    O    0.48477   0.35074   0.56442   1.000
    O363    O    0.49870   0.27292   0.50107   1.000
    N364    N    0.82549   0.00029   0.25146   1.000
    O365    O    0.85229   0.98631   0.18923   1.000
    O366    O    0.77393   0.00018   0.25147   1.000
    O367    O    0.85189   0.01440   0.31380   1.000
    N368    N    0.99906   0.32475   0.50165   1.000
    O369    O    0.01398   0.35122   0.43952   1.000
    O370    O    0.99870   0.27292   0.50107   1.000
    O371    O    0.98476   0.35074   0.56442   1.000
    N372    N    0.67472   0.00147   0.75087   1.000
    O373    O    0.64827   0.98677   0.81304   1.000
    O374    O    0.64827   0.01570   0.68849   1.000
    O375    O    0.72626   0.00185   0.75119   1.000
    N376    N    0.32550   0.00028   0.25145   1.000
    O377    O    0.27394   0.00018   0.25146   1.000
    O378    O    0.35230   0.98631   0.18922   1.000
    O379    O    0.35190   0.01440   0.31377   1.000
    N380    N    0.17473   0.50146   0.75090   1.000
    O381    O    0.14828   0.51569   0.68850   1.000
    O382    O    0.14828   0.48677   0.81306   1.000
    O383    O    0.22627   0.50184   0.75120   1.000
    N384    N    0.49905   0.82474   0.50165   1.000
    O385    O    0.49870   0.77291   0.50107   1.000
    O386    O    0.48477   0.85074   0.56442   1.000
    O387    O    0.51397   0.85121   0.43952   1.000
    N388    N    0.50109   0.67639   0.99920   1.000
    O389    O    0.50096   0.72822   0.99955   1.000
    O390    O    0.51550   0.64975   0.06147   1.000
    O391    O    0.48678   0.65037   0.93664   1.000
    N392    N    0.32550   0.50028   0.25145   1.000
    O393    O    0.35190   0.51439   0.31377   1.000
    O394    O    0.35230   0.48631   0.18922   1.000
    O395    O    0.27394   0.50017   0.25146   1.000
    N396    N    0.50109   0.17640   0.99920   1.000
    O397    O    0.48678   0.15038   0.93664   1.000
    O398    O    0.50097   0.22822   0.99955   1.000
    O399    O    0.51550   0.14975   0.06147   1.000
    N400    N    0.82549   0.50028   0.25145   1.000
    O401    O    0.85189   0.51439   0.31377   1.000
    O402    O    0.85229   0.48631   0.18922   1.000
    O403    O    0.77393   0.50018   0.25146   1.000
    N404    N    0.00109   0.17639   0.99920   1.000
    O405    O    0.98678   0.15038   0.93664   1.000
    O406    O    0.00097   0.22822   0.99955   1.000
    O407    O    0.01550   0.14975   0.06147   1.000
    N408    N    0.99906   0.82474   0.50164   1.000
    O409    O    0.01398   0.85121   0.43952   1.000
    O410    O    0.98476   0.85074   0.56441   1.000
    O411    O    0.99870   0.77291   0.50105   1.000
    N412    N    0.67472   0.50146   0.75090   1.000
    O413    O    0.72626   0.50184   0.75120   1.000
    O414    O    0.64827   0.48677   0.81308   1.000
    O415    O    0.64827   0.51570   0.68850   1.000
    N416    N    0.17473   0.00146   0.75086   1.000
    O417    O    0.14828   0.98677   0.81304   1.000
    O418    O    0.22627   0.00185   0.75117   1.000
    O419    O    0.14828   0.01570   0.68848   1.000
    N420    N    0.00093   0.67639   0.99920   1.000
    O421    O    0.00089   0.72822   0.99955   1.000
    O422    O    0.01542   0.64975   0.06145   1.000
    O423    O    0.98669   0.65037   0.93664   1.000
loop_
    _geom_bond_atom_site_label_1
    _geom_bond_atom_site_label_2
    _geom_bond_distance
    _geom_bond_site_symmetry_2
    _ccdc_geom_bond_type
    Zr60   O160      0.63654      .   S
    Zr104  O160      0.63654      .   S
    Zr60   O161      0.63635  1_454   S
    Zr154  O161      0.63635      .   S
    Zr61   O162      0.63692      .   S
    Zr105  O162      0.63692      .   S
    Zr61   O163      0.63635  1_454   S
    Zr155  O163      0.63635      .   S
    Zr62   O164      0.63691      .   S
    Zr106  O164      0.63691      .   S
    Zr62   O165      0.63626  1_554   S
    Zr152  O165      0.63626      .   S
    Zr63   O166      0.63691      .   S
    Zr107  O166      0.63691      .   S
    Zr63   O167      0.63626  1_554   S
    Zr153  O167      0.63626      .   S
    Zr127  O168      0.63594      .   S
    Zr39   O168      0.63594      .   S
    Zr127  O169      1.16268  1_554   S
    Zr11   O169      1.16268      .   S
    Zr126  O170      0.63594      .   S
    Zr38   O170      0.63594      .   S
    Zr126  O171      1.16267  1_554   S
    Zr10   O171      1.16267      .   S
    Zr125  O172      0.63594      .   S
    Zr37   O172      0.63594      .   S
    Zr125  O173      1.16268  1_554   S
    Zr9    O173      1.16268      .   S
    Zr124  O174      0.63594      .   S
    Zr36   O174      0.63594      .   S
    Zr124  O175      1.16268  1_554   S
    Zr8    O175      1.16268      .   S
    Zr104  O176      1.12944      .   S
    Zr4    O176      1.12944      .   S
    Zr107  O177      1.12913      .   S
    Zr7    O177      1.12913      .   S
    Zr106  O178      1.12913      .   S
    Zr6    O178      1.12913      .   S
    Zr105  O179      1.12914      .   S
    Zr5    O179      1.12914      .   S
    Zr38   O180      0.63939      .   S
    Zr134  O180      0.63939      .   S
    Zr36   O181      0.63939      .   S
    Zr132  O181      0.63939      .   S
    Zr37   O182      0.63939      .   S
    Zr133  O182      0.63939      .   S
    Zr39   O183      0.63938      .   S
    Zr135  O183      0.63938      .   S
    Zr134  O184      1.11755  1_655   S
    Zr4    O184      1.11755      .   S
    Zr133  O185      1.11740      .   S
    Zr7    O185      1.11740      .   S
    Zr135  O186      1.11756  1_655   S
    Zr5    O186      1.11756      .   S
    Zr132  O187      1.11740      .   S
    Zr6    O187      1.11740      .   S
    Zr4    O188      1.12308      .   S
    Zr109  O188      1.12308      .   S
    Zr4    O189      1.13117      .   S
    Zr128  O189      1.13117      .   S
    Zr4    O190      1.16739      .   S
    Zr136  O190      1.16739      .   S
    Zr4    O191      1.16343      .   S
    Zr76   O191      1.16343  1_556   S
    Zr5    O192      1.12322      .   S
    Zr108  O192      1.12322  1_545   S
    Zr5    O193      1.13117      .   S
    Zr129  O193      1.13117      .   S
    Zr5    O194      1.16739      .   S
    Zr137  O194      1.16739      .   S
    Zr5    O195      1.16343      .   S
    Zr77   O195      1.16343  1_556   S
    Zr6    O196      1.12308      .   S
    Zr111  O196      1.12308      .   S
    Zr6    O197      1.13117      .   S
    Zr130  O197      1.13117      .   S
    Zr6    O198      1.16738      .   S
    Zr138  O198      1.16738      .   S
    Zr6    O199      1.16344      .   S
    Zr78   O199      1.16344  1_556   S
    Zr7    O200      1.12322      .   S
    Zr110  O200      1.12322  1_545   S
    Zr7    O201      1.13118      .   S
    Zr131  O201      1.13118      .   S
    Zr7    O202      1.16739      .   S
    Zr139  O202      1.16739      .   S
    Zr7    O203      1.16343      .   S
    Zr79   O203      1.16343  1_556   S
    Zr111  O204      0.64048      .   S
    Zr31   O204      0.64048      .   S
    Zr110  O205      0.64048      .   S
    Zr30   O205      0.64048      .   S
    Zr109  O206      0.64044      .   S
    Zr29   O206      0.64044      .   S
    Zr108  O207      0.64048      .   S
    Zr28   O207      0.64048      .   S
    Zr29   O208      0.63653      .   S
    Zr101  O208      0.63653      .   S
    Zr28   O209      0.63615      .   S
    Zr100  O209      0.63615      .   S
    Zr30   O210      0.63615      .   S
    Zr102  O210      0.63615      .   S
    Zr31   O211      0.63615      .   S
    Zr103  O211      0.63615      .   S
    Zr131  O212      0.63685      .   S
    Zr50   O212      0.63685  1_545   S
    Zr130  O213      0.63674      .   S
    Zr51   O213      0.63674      .   S
    Zr129  O214      0.63685      .   S
    Zr48   O214      0.63685  1_545   S
    Zr128  O215      0.63673      .   S
    Zr49   O215      0.63673      .   S
    Zr100  O216      1.16719      .   S
    Zr12   O216      1.16719      .   S
    Zr101  O217      1.16719      .   S
    Zr13   O217      1.16719      .   S
    Zr102  O218      1.16719      .   S
    Zr14   O218      1.16719      .   S
    Zr103  O219      1.16719      .   S
    Zr15   O219      1.16719      .   S
    Zr48   O220      0.63669      .   S
    Zr68   O220      0.63669      .   S
    Zr49   O221      0.63669      .   S
    Zr69   O221      0.63669      .   S
    Zr50   O222      0.63669      .   S
    Zr70   O222      0.63669      .   S
    Zr51   O223      0.63669      .   S
    Zr71   O223      0.63669      .   S
    Zr139  O224      0.63610      .   S
    Zr43   O224      0.63610      .   S
    Zr138  O225      0.63609      .   S
    Zr42   O225      0.63609      .   S
    Zr137  O226      0.63610      .   S
    Zr41   O226      0.63610      .   S
    Zr136  O227      0.63610      .   S
    Zr40   O227      0.63610      .   S
    Zr70   O228      1.13149      .   S
    Zr14   O228      1.13149      .   S
    Zr69   O229      1.13148      .   S
    Zr13   O229      1.13148      .   S
    Zr71   O230      1.13149      .   S
    Zr15   O230      1.13149      .   S
    Zr68   O231      1.13148      .   S
    Zr12   O231      1.13148      .   S
    Zr40   O232      0.64096      .   S
    Zr144  O232      0.64096      .   S
    Zr41   O233      0.64096      .   S
    Zr145  O233      0.64096      .   S
    Zr42   O234      0.64095      .   S
    Zr146  O234      0.64095      .   S
    Zr43   O235      0.64096      .   S
    Zr147  O235      0.64096      .   S
    Zr144  O236      1.12506      .   S
    Zr13   O236      1.12506      .   S
    Zr145  O237      1.12521  1_565   S
    Zr12   O237      1.12521      .   S
    Zr146  O238      1.12505      .   S
    Zr15   O238      1.12505      .   S
    Zr147  O239      1.12520  1_565   S
    Zr14   O239      1.12520      .   S
    Zr15   O240      1.12147      .   S
    Zr73   O240      1.12147      .   S
    Zr15   O241      1.12967      .   S
    Zr143  O241      1.12967      .   S
    Zr15   O242      1.16465      .   S
    Zr115  O242      1.16465      .   S
    Zr14   O243      1.12147      .   S
    Zr72   O243      1.12147      .   S
    Zr14   O244      1.12965      .   S
    Zr142  O244      1.12965      .   S
    Zr14   O245      1.16465      .   S
    Zr114  O245      1.16465      .   S
    Zr13   O246      1.12162      .   S
    Zr75   O246      1.12162  1_655   S
    Zr13   O247      1.12965      .   S
    Zr141  O247      1.12965      .   S
    Zr13   O248      1.16465      .   S
    Zr113  O248      1.16465      .   S
    Zr12   O249      1.12162      .   S
    Zr74   O249      1.12162  1_655   S
    Zr12   O250      1.12965      .   S
    Zr140  O250      1.12965      .   S
    Zr12   O251      1.16464      .   S
    Zr112  O251      1.16464      .   S
    Zr75   O252      0.64018      .   S
    Zr19   O252      0.64018      .   S
    Zr74   O253      0.64018      .   S
    Zr18   O253      0.64018      .   S
    Zr73   O254      0.64018      .   S
    Zr17   O254      0.64018      .   S
    Zr72   O255      0.64018      .   S
    Zr16   O255      0.64018      .   S
    Zr18   O256      0.63059      .   S
    Zr66   O256      0.63059      .   S
    Zr17   O257      0.63059      .   S
    Zr65   O257      0.63059      .   S
    Zr16   O258      0.63059      .   S
    Zr64   O258      0.63059      .   S
    Zr19   O259      0.63059      .   S
    Zr67   O259      0.63059      .   S
    Zr140  O260      0.63676      .   S
    Zr56   O260      0.63676  1_655   S
    Zr141  O261      0.63676      .   S
    Zr57   O261      0.63676  1_655   S
    Zr142  O262      0.63675      .   S
    Zr58   O262      0.63675      .   S
    Zr143  O263      0.63676      .   S
    Zr59   O263      0.63676      .   S
    Zr64   O264      1.16969      .   S
    Zr0    O264      1.16969      .   S
    Zr65   O265      1.16969      .   S
    Zr1    O265      1.16969      .   S
    Zr66   O266      1.16969      .   S
    Zr2    O266      1.16969      .   S
    Zr67   O267      1.16969      .   S
    Zr3    O267      1.16969      .   S
    Zr56   O268      0.63657      .   S
    Zr94   O268      0.63657      .   S
    Zr59   O269      0.63646      .   S
    Zr93   O269      0.63646      .   S
    Zr57   O270      0.63658      .   S
    Zr95   O270      0.63658      .   S
    Zr58   O271      0.63647      .   S
    Zr92   O271      0.63647      .   S
    Zr114  O272      0.63539      .   S
    Zr34   O272      0.63539      .   S
    Zr113  O273      0.63539      .   S
    Zr33   O273      0.63539      .   S
    Zr112  O274      0.63539      .   S
    Zr32   O274      0.63539      .   S
    Zr115  O275      0.63539      .   S
    Zr35   O275      0.63539      .   S
    Zr92   O276      1.12956      .   S
    Zr0    O276      1.12956      .   S
    Zr93   O277      1.12956      .   S
    Zr1    O277      1.12956      .   S
    Zr95   O278      1.12956      .   S
    Zr3    O278      1.12956      .   S
    Zr94   O279      1.12957      .   S
    Zr2    O279      1.12957      .   S
    Zr32   O280      0.64076      .   S
    Zr120  O280      0.64076      .   S
    Zr33   O281      0.64076      .   S
    Zr121  O281      0.64076      .   S
    Zr34   O282      0.64077      .   S
    Zr122  O282      0.64077      .   S
    Zr35   O283      0.64077      .   S
    Zr123  O283      0.64077      .   S
    Zr122  O284      1.12027      .   S
    Zr0    O284      1.12027      .   S
    Zr120  O285      1.12042  1_455   S
    Zr2    O285      1.12042      .   S
    Zr121  O286      1.12042  1_455   S
    Zr3    O286      1.12042      .   S
    Zr123  O287      1.12027      .   S
    Zr1    O287      1.12027      .   S
    Zr1    O288      1.13509      .   S
    Zr96   O288      1.13509      .   S
    Zr1    O289      1.12980      .   S
    Zr117  O289      1.12980      .   S
    Zr1    O290      1.16932      .   S
    Zr149  O290      1.16932      .   S
    Zr0    O291      1.13524      .   S
    Zr97   O291      1.13524  1_565   S
    Zr0    O292      1.12980      .   S
    Zr116  O292      1.12980      .   S
    Zr0    O293      1.16932      .   S
    Zr148  O293      1.16932      .   S
    Zr3    O294      1.13509      .   S
    Zr98   O294      1.13509      .   S
    Zr3    O295      1.12980      .   S
    Zr119  O295      1.12980      .   S
    Zr3    O296      1.16933      .   S
    Zr151  O296      1.16933      .   S
    Zr2    O297      1.13524      .   S
    Zr99   O297      1.13524  1_565   S
    Zr2    O298      1.12980      .   S
    Zr118  O298      1.12980      .   S
    Zr2    O299      1.16932      .   S
    Zr150  O299      1.16932      .   S
    Zr99   O300      0.64239      .   S
    Zr27   O300      0.64239      .   S
    Zr98   O301      0.64239      .   S
    Zr26   O301      0.64239      .   S
    Zr97   O302      0.64239      .   S
    Zr25   O302      0.64239      .   S
    Zr96   O303      0.64239      .   S
    Zr24   O303      0.64239      .   S
    Zr27   O304      0.63563      .   S
    Zr91   O304      0.63563      .   S
    Zr26   O305      0.63563      .   S
    Zr90   O305      0.63563      .   S
    Zr25   O306      0.63563      .   S
    Zr89   O306      0.63563      .   S
    Zr24   O307      0.63563      .   S
    Zr88   O307      0.63563      .   S
    Zr116  O308      0.63669      .   S
    Zr52   O308      0.63669      .   S
    Zr117  O309      0.63684      .   S
    Zr53   O309      0.63684      .   S
    Zr118  O310      0.63684      .   S
    Zr54   O310      0.63684      .   S
    Zr119  O311      0.63669      .   S
    Zr55   O311      0.63669      .   S
    Zr88   O312      1.17156      .   S
    Zr8    O312      1.17156      .   S
    Zr89   O313      1.17155      .   S
    Zr9    O313      1.17155      .   S
    Zr90   O314      1.17156      .   S
    Zr10   O314      1.17156      .   S
    Zr91   O315      1.17157      .   S
    Zr11   O315      1.17157      .   S
    Zr148  O316      0.63599      .   S
    Zr44   O316      0.63599      .   S
    Zr151  O317      0.63599      .   S
    Zr47   O317      0.63599      .   S
    Zr149  O318      0.63599      .   S
    Zr45   O318      0.63599      .   S
    Zr150  O319      0.63599      .   S
    Zr46   O319      0.63599      .   S
    Zr52   O320      0.63680  1_545   S
    Zr81   O320      0.63680      .   S
    Zr55   O321      0.63659      .   S
    Zr82   O321      0.63659      .   S
    Zr53   O322      0.63643      .   S
    Zr80   O322      0.63643      .   S
    Zr54   O323      0.63652  1_545   S
    Zr83   O323      0.63652      .   S
    Zr83   O324      1.13055      .   S
    Zr11   O324      1.13055      .   S
    Zr82   O325      1.13054      .   S
    Zr10   O325      1.13054      .   S
    Zr80   O326      1.13054      .   S
    Zr8    O326      1.13054      .   S
    Zr81   O327      1.13045      .   S
    Zr9    O327      1.13045      .   S
    Zr46   O328      0.64165      .   S
    Zr158  O328      0.64165      .   S
    Zr44   O329      0.64164      .   S
    Zr156  O329      0.64164      .   S
    Zr45   O330      0.64165      .   S
    Zr157  O330      0.64165      .   S
    Zr47   O331      0.64165      .   S
    Zr159  O331      0.64165      .   S
    Zr156  O332      1.13200  1_545   S
    Zr9    O332      1.13200      .   S
    Zr157  O333      1.13184      .   S
    Zr8    O333      1.13184      .   S
    Zr158  O334      1.13199  1_545   S
    Zr11   O334      1.13199      .   S
    Zr159  O335      1.13185      .   S
    Zr10   O335      1.13185      .   S
    Zr8    O336      1.11896      .   S
    Zr86   O336      1.11896      .   S
    Zr8    O337      1.13247      .   S
    Zr152  O337      1.13247      .   S
    Zr9    O338      1.11896      .   S
    Zr87   O338      1.11896      .   S
    Zr9    O339      1.13247      .   S
    Zr153  O339      1.13247      .   S
    Zr10   O340      1.11911      .   S
    Zr84   O340      1.11911  1_455   S
    Zr10   O341      1.13246      .   S
    Zr154  O341      1.13246      .   S
    Zr11   O342      1.11911      .   S
    Zr85   O342      1.11911  1_455   S
    Zr11   O343      1.13247      .   S
    Zr155  O343      1.13247      .   S
    Zr86   O344      0.64039      .   S
    Zr22   O344      0.64039      .   S
    Zr87   O345      0.64035      .   S
    Zr23   O345      0.64035      .   S
    Zr85   O346      0.64034      .   S
    Zr21   O346      0.64034      .   S
    Zr84   O347      0.64035      .   S
    Zr20   O347      0.64035      .   S
    Zr23   O348      0.63611      .   S
    Zr79   O348      0.63611      .   S
    Zr20   O349      0.63611      .   S
    Zr76   O349      0.63611      .   S
    Zr21   O350      0.63611      .   S
    Zr77   O350      0.63611      .   S
    Zr22   O351      0.63574      .   S
    Zr78   O351      0.63574      .   S
    Zr96   O352      1.47366      .   S
    Zr8    O352      1.47366      .   S
    Zr97   O353      1.47366      .   S
    Zr9    O353      1.47366      .   S
    Zr98   O354      1.47366      .   S
    Zr10   O354      1.47366      .   S
    Zr99   O355      1.47366      .   S
    Zr11   O355      1.47366      .   S
    Zr156  O356      1.49072      .   S
    Zr0    O356      1.49072      .   S
    Zr157  O357      1.49072      .   S
    Zr1    O357      1.49072      .   S
    Zr158  O358      1.49072      .   S
    Zr2    O358      1.49072      .   S
    Zr159  O359      1.49072      .   S
    Zr3    O359      1.49072      .   S
    N360   O361      1.07454      .   S
    Zr42   O361      1.81955      .   S
    N360   O362      1.07422      .   S
    Zr24   O362      1.81873      .   S
    N360   O363      1.07119      .   S
    Zr58   O363      1.81993      .   S
    N364   O365      1.07484  1_545   S
    Zr39   O365      1.81985      .   S
    N364   O366      1.06995      .   S
    Zr50   O366      1.81892      .   S
    N364   O367      1.07499      .   S
    Zr18   O367      1.81979      .   S
    N368   O369      1.07455  1_655   S
    Zr40   O369      1.81956      .   S
    N368   O370      1.07119      .   S
    Zr56   O370      1.81991      .   S
    N368   O371      1.07426      .   S
    Zr26   O371      1.81877      .   S
    N372   O373      1.07464  1_545   S
    Zr23   O373      1.81884      .   S
    N372   O374      1.07403      .   S
    Zr34   O374      1.81848      .   S
    N372   O375      1.06962      .   S
    Zr54   O375      1.81783      .   S
    N376   O377      1.06995      .   S
    Zr48   O377      1.81892      .   S
    N376   O378      1.07478  1_545   S
    Zr37   O378      1.81980      .   S
    N376   O379      1.07481      .   S
    Zr16   O379      1.82007      .   S
    N380   O381      1.07420      .   S
    Zr33   O381      1.81866      .   S
    N380   O382      1.07442      .   S
    Zr20   O382      1.81862      .   S
    N380   O383      1.06962      .   S
    Zr53   O383      1.81784      .   S
    N384   O385      1.07119      .   S
    Zr59   O385      1.81992      .   S
    N384   O386      1.07423      .   S
    Zr25   O386      1.81873      .   S
    N384   O387      1.07454      .   S
    Zr43   O387      1.81955      .   S
    N388   O389      1.07116      .   S
    Zr63   O389      1.82004  1_554   S
    N388   O390      1.07407  1_556   S
    Zr31   O390      1.81861      .   S
    N388   O391      1.07413      .   S
    Zr45   O391      1.81850      .   S
    N392   O393      1.07479      .   S
    Zr17   O393      1.82006      .   S
    N392   O394      1.07476      .   S
    Zr36   O394      1.81978      .   S
    N392   O395      1.06995      .   S
    Zr49   O395      1.81893      .   S
    N396   O397      1.07413      .   S
    Zr44   O397      1.81850      .   S
    N396   O398      1.07116      .   S
    Zr62   O398      1.82003  1_554   S
    N396   O399      1.07408  1_556   S
    Zr30   O399      1.81861      .   S
    N400   O401      1.07479      .   S
    Zr19   O401      1.82005      .   S
    N400   O402      1.07476      .   S
    Zr38   O402      1.81978      .   S
    N400   O403      1.06995      .   S
    Zr51   O403      1.81893      .   S
    N404   O405      1.07414  1_455   S
    Zr46   O405      1.81851      .   S
    N404   O406      1.07116      .   S
    Zr60   O406      1.82004  1_554   S
    N404   O407      1.07411  1_556   S
    Zr28   O407      1.81864      .   S
    N408   O409      1.07447  1_655   S
    Zr41   O409      1.81948      .   S
    N408   O410      1.07433      .   S
    Zr27   O410      1.81883      .   S
    N408   O411      1.07119      .   S
    Zr57   O411      1.81991      .   S
    N412   O413      1.06961      .   S
    Zr55   O413      1.81782      .   S
    N412   O414      1.07457      .   S
    Zr22   O414      1.81910      .   S
    N412   O415      1.07423      .   S
    Zr35   O415      1.81868      .   S
    N416   O417      1.07468  1_545   S
    Zr21   O417      1.81888      .   S
    N416   O418      1.06962      .   S
    Zr52   O418      1.81784      .   S
    N416   O419      1.07399      .   S
    Zr32   O419      1.81845      .   S
    N420   O421      1.07117      .   S
    Zr61   O421      1.82005  1_554   S
    N420   O422      1.07438  1_556   S
    Zr29   O422      1.81856      .   S
    N420   O423      1.07369  1_455   S
    Zr47   O423      1.81807      .   S
