# CIF file generated by openbabel 2.4.90, see http://openbabel.sf.net
data_I
_chemical_name_common ''
_cell_length_a 6.7565
_cell_length_b 7.1535
_cell_length_c 7.1865
_cell_angle_alpha 90.002
_cell_angle_beta 90.007
_cell_angle_gamma 90.001
_space_group_name_H-M_alt 'P 1'
_space_group_name_Hall 'P 1'
loop_
    _symmetry_equiv_pos_as_xyz
    x,y,z
loop_
    _atom_site_label
    _atom_site_type_symbol
    _atom_site_fract_x
    _atom_site_fract_y
    _atom_site_fract_z
    _atom_site_occupancy
    H0      H    0.68596   0.79044   0.49976   1.000
    H1      H    0.31400   0.79044   0.50023   1.000
    H2      H    0.31399   0.20974   0.50018   1.000
    H3      H    0.68595   0.20974   0.49972   1.000
    Pt4     Pt   0.00000   0.00001   0.00000   1.000
    C5      C    0.60245   0.66067   0.49993   1.000
    C6      C    0.99987   0.80243   0.80344   1.000
    C7      C    0.39750   0.66067   0.50005   1.000
    C8      C    0.00010   0.80243   0.19656   1.000
    C9      C    0.39750   0.33950   0.50003   1.000
    C10     C    0.00009   0.19765   0.19655   1.000
    C11     C    0.60245   0.33950   0.49991   1.000
    C12     C    0.99987   0.19765   0.80345   1.000
    N13     N    0.99990   0.68761   0.68699   1.000
    N14     N    0.00006   0.68761   0.31300   1.000
    N15     N    0.00005   0.31253   0.31295   1.000
    N16     N    0.99990   0.31252   0.68705   1.000
    N17     N    0.70824   0.50009   0.49983   1.000
    N18     N    0.29171   0.50009   0.50014   1.000
    Fe19    Fe   0.99993   0.50010   0.49999   1.000
loop_
    _geom_bond_atom_site_label_1
    _geom_bond_atom_site_label_2
    _geom_bond_distance
    _geom_bond_site_symmetry_2
    _ccdc_geom_bond_type
    Pt4    C10       1.99847      .   S
    Pt4    C8        1.99831  1_545   S
    Pt4    C6        1.99825  1_444   S
    Pt4    C12       1.99855  1_454   S
    C10    N15       1.17258      .   S
    C8     N14       1.17258      .   S
    N15    Fe19      1.89926  1_455   S
    N14    Fe19      1.89876  1_455   S
    H3     C11       1.08630      .   S
    H0     C5        1.08632      .   S
    N17    C11       1.35301      .   S
    N17    C5        1.35294      .   S
    N17    Fe19      1.97080      .   S
    C11    C9        1.38475      .   S
    C5     C7        1.38473      .   S
    Fe19   N18       1.97137  1_655   S
    Fe19   N13       1.89871      .   S
    Fe19   N16       1.89941      .   S
    C9     N18       1.35300      .   S
    C9     H2        1.08631      .   S
    C7     N18       1.35293      .   S
    C7     H1        1.08632      .   S
    N13    C6        1.17257      .   S
    N16    C12       1.17259      .   S
