# CIF file generated by openbabel 2.4.90, see http://openbabel.sf.net
data_I
_chemical_name_common ''
_cell_length_a 6.7565
_cell_length_b 7.1535
_cell_length_c 7.1865
_cell_angle_alpha 90.002
_cell_angle_beta 90.007
_cell_angle_gamma 90.001
_space_group_name_H-M_alt 'P 1'
_space_group_name_Hall 'P 1'
loop_
    _symmetry_equiv_pos_as_xyz
    x,y,z
loop_
    _atom_site_label
    _atom_site_type_symbol
    _atom_site_fract_x
    _atom_site_fract_y
    _atom_site_fract_z
    _atom_site_occupancy
    Pt0     Pt   0.00000   0.00001   0.00000   1.000
    C1      C    0.99987   0.80243   0.80344   1.000
    C2      C    0.00010   0.80243   0.19656   1.000
    C3      C    0.00009   0.19765   0.19655   1.000
    C4      C    0.99987   0.19765   0.80345   1.000
    Fe5     Fe   0.99993   0.50010   0.49999   1.000
    Ts6     Ts   0.99988   0.76415   0.76463   1.000
    Ts7     Ts   0.00009   0.76415   0.23537   1.000
    Ts8     Ts   0.00008   0.23595   0.23535   1.000
    Ts9     Ts   0.99988   0.23594   0.76465   1.000
    Ts10    Ts   0.99992   0.56260   0.56233   1.000
    Ts11    Ts   0.99998   0.56260   0.43766   1.000
    Ts12    Ts   0.99997   0.43757   0.43764   1.000
    Ts13    Ts   0.99992   0.43757   0.56235   1.000
    Ts14    Ts   0.90270   0.50010   0.49994   1.000
    Ts15    Ts   0.09719   0.50010   0.50004   1.000
loop_
    _geom_bond_atom_site_label_1
    _geom_bond_atom_site_label_2
    _geom_bond_distance
    _geom_bond_site_symmetry_2
    _ccdc_geom_bond_type
    Pt0    C3        1.99847      .   S
    Pt0    C2        1.99831  1_545   S
    Pt0    C1        1.99825  1_444   S
    Pt0    C4        1.99855  1_454   S
    C1     Ts6       0.39086      .   S
    C2     Ts7       0.39086      .   S
    C3     Ts8       0.39086      .   S
    C4     Ts9       0.39086      .   S
    Fe5    Ts10      0.63290      .   S
    Fe5    Ts11      0.63292      .   S
    Fe5    Ts12      0.63309      .   S
    Fe5    Ts13      0.63314      .   S
    Fe5    Ts14      0.65693      .   S
    Fe5    Ts15      0.65712  1_655   S
