# CIF file generated by openbabel 2.4.90, see http://openbabel.sf.net
data_I
_chemical_name_common ''
_cell_length_a 6.7565
_cell_length_b 7.1535
_cell_length_c 7.1865
_cell_angle_alpha 90.002
_cell_angle_beta 90.007
_cell_angle_gamma 90.001
_space_group_name_H-M_alt 'P 1'
_space_group_name_Hall 'P 1'
loop_
    _symmetry_equiv_pos_as_xyz
    x,y,z
loop_
    _atom_site_label
    _atom_site_type_symbol
    _atom_site_fract_x
    _atom_site_fract_y
    _atom_site_fract_z
    _atom_site_occupancy
    Zr0     Zr   0.99993   0.50010   0.49999   1.000
    Zr1     Zr   0.00000   0.00001   0.00000   1.000
    Zr2     Zr   0.99987   0.80243   0.80344   1.000
    Zr3     Zr   0.00010   0.80243   0.19656   1.000
    Zr4     Zr   0.00009   0.19765   0.19655   1.000
    Zr5     Zr   0.99987   0.19765   0.80345   1.000
    O6      O    0.00005   0.09883   0.09827   1.000
    O7      O    0.00005   0.90122   0.09828   1.000
    O8      O    0.99994   0.90122   0.90172   1.000
    O9      O    0.99993   0.09883   0.90172   1.000
    N10     N    0.49997   0.50009   0.49998   1.000
    O11     O    0.67703   0.50009   0.49994   1.000
    O12     O    0.32290   0.50009   0.50002   1.000
    N13     N    0.00006   0.68761   0.31300   1.000
    O14     O    0.00007   0.71631   0.28389   1.000
    O15     O    0.00003   0.64073   0.35975   1.000
    N16     N    0.00005   0.31253   0.31295   1.000
    O17     O    0.00006   0.28381   0.28385   1.000
    O18     O    0.00002   0.35942   0.35971   1.000
    N19     N    0.99990   0.31252   0.68705   1.000
    O20     O    0.99989   0.28380   0.71615   1.000
    O21     O    0.99991   0.35941   0.64029   1.000
    N22     N    0.99990   0.68761   0.68699   1.000
    O23     O    0.99991   0.64073   0.64024   1.000
    O24     O    0.99989   0.71631   0.71611   1.000
loop_
    _geom_bond_atom_site_label_1
    _geom_bond_atom_site_label_2
    _geom_bond_distance
    _geom_bond_site_symmetry_2
    _ccdc_geom_bond_type
    Zr1    O6        0.99923      .   S
    Zr4    O6        0.99923      .   S
    Zr1    O7        0.99915  1_545   S
    Zr3    O7        0.99915      .   S
    Zr1    O8        0.99912  1_444   S
    Zr2    O8        0.99912      .   S
    Zr1    O9        0.99927  1_454   S
    Zr5    O9        0.99927      .   S
    N10    O11       1.19628      .   S
    Zr0    O11       2.18169      .   S
    N10    O12       1.19642      .   S
    Zr0    O12       2.18211  1_655   S
    N13    O14       0.29314      .   S
    Zr3    O14       0.87943      .   S
    N13    O15       0.47469      .   S
    Zr0    O15       1.42407  1_655   S
    N16    O17       0.29315      .   S
    Zr4    O17       0.87944      .   S
    N16    O18       0.47481      .   S
    Zr0    O18       1.42444  1_655   S
    N19    O20       0.29315      .   S
    Zr5    O20       0.87945      .   S
    N19    O21       0.47485      .   S
    Zr0    O21       1.42455      .   S
    N22    O23       0.47468      .   S
    Zr0    O23       1.42403      .   S
    N22    O24       0.29314      .   S
    Zr2    O24       0.87943      .   S
