# CIF file generated by openbabel 2.4.90, see http://openbabel.sf.net
data_I
_chemical_name_common ''
_cell_length_a 7.983
_cell_length_b 14.441
_cell_length_c 14.453
_cell_angle_alpha 89.786
_cell_angle_beta 89.654
_cell_angle_gamma 85.679
_space_group_name_H-M_alt 'P 1'
_space_group_name_Hall 'P 1'
loop_
    _symmetry_equiv_pos_as_xyz
    x,y,z
loop_
    _atom_site_label
    _atom_site_type_symbol
    _atom_site_fract_x
    _atom_site_fract_y
    _atom_site_fract_z
    _atom_site_occupancy
    Ag0     Ag   0.22962   0.06291   0.57462   1.000
    Ag1     Ag   0.77342   0.43727   0.07489   1.000
    Ag2     Ag   0.25704   0.43314   0.06931   1.000
    Ag3     Ag   0.77362   0.93757   0.42502   1.000
    Ag4     Ag   0.25932   0.93323   0.43029   1.000
    Ag5     Ag   0.74098   0.56670   0.92999   1.000
    Ag6     Ag   0.22985   0.56332   0.92478   1.000
    H7      H    0.10752   0.31240   0.38377   1.000
    H8      H    0.60453   0.31581   0.37758   1.000
    H9      H    0.99767   0.42736   0.26243   1.000
    H10     H    0.48909   0.42828   0.25553   1.000
    H11     H    0.79870   0.22034   0.11045   1.000
    H12     H    0.29192   0.21736   0.10822   1.000
    H13     H    0.90649   0.09727   0.22346   1.000
    H14     H    0.40621   0.09660   0.22183   1.000
    H15     H    0.39157   0.18431   0.87899   1.000
    H16     H    0.00000   0.18732   0.88357   1.000
    H17     H    0.50723   0.07193   0.75694   1.000
    H18     H    0.00087   0.07271   0.76244   1.000
    H19     H    0.71144   0.28235   0.60933   1.000
    H20     H    0.20697   0.27958   0.61062   1.000
    H21     H    0.59818   0.40294   0.72322   1.000
    H22     H    0.09738   0.40240   0.72314   1.000
    H23     H    0.39638   0.68387   0.62072   1.000
    H24     H    0.00000   0.68769   0.61650   1.000
    H25     H    0.51191   0.57143   0.74281   1.000
    H26     H    0.00431   0.57290   0.73759   1.000
    H27     H    0.70783   0.78251   0.89043   1.000
    H28     H    0.20470   0.78016   0.88861   1.000
    H29     H    0.59465   0.90313   0.77638   1.000
    H30     H    0.09506   0.90308   0.77599   1.000
    H31     H    0.11228   0.81249   0.11618   1.000
    Ag32    Ag   0.73843   0.06645   0.56955   1.000
    H33     H    0.61105   0.81591   0.12182   1.000
    H34     H    0.00218   0.92732   0.23743   1.000
    H35     H    0.49457   0.92837   0.24358   1.000
    H36     H    0.79696   0.72072   0.39002   1.000
    H37     H    0.29062   0.71790   0.39130   1.000
    H38     H    0.90492   0.59775   0.27719   1.000
    H39     H    0.40559   0.59718   0.27799   1.000
    C40     C    0.59422   0.12763   0.37626   1.000
    C41     C    0.09174   0.12482   0.37988   1.000
    C42     C    0.01581   0.19594   0.31232   1.000
    C43     C    0.51422   0.19749   0.30864   1.000
    C44     C    0.03856   0.29026   0.32404   1.000
    C45     C    0.53475   0.29224   0.31878   1.000
    C46     C    0.97674   0.35378   0.25768   1.000
    C47     C    0.46963   0.35444   0.25202   1.000
    C48     C    0.86799   0.23796   0.17196   1.000
    C49     C    0.36203   0.23644   0.16892   1.000
    C50     C    0.92803   0.16994   0.23438   1.000
    C51     C    0.42552   0.16970   0.23174   1.000
    C52     C    0.90845   0.37493   0.87969   1.000
    C53     C    0.40596   0.37227   0.87760   1.000
    C54     C    0.48597   0.30236   0.81002   1.000
    C55     C    0.00000   0.30382   0.81216   1.000
    C56     C    0.46314   0.20776   0.82017   1.000
    C57     C    0.00000   0.20956   0.82389   1.000
    C58     C    0.52818   0.14563   0.75337   1.000
    C59     C    0.02311   0.14617   0.75765   1.000
    C60     C    0.63980   0.26332   0.67009   1.000
    C61     C    0.13567   0.26189   0.67199   1.000
    C62     C    0.57683   0.33000   0.73306   1.000
    C63     C    0.07471   0.32980   0.73421   1.000
    C64     C    0.90862   0.87537   0.62001   1.000
    C65     C    0.40630   0.87218   0.62213   1.000
    C66     C    0.48652   0.80225   0.68964   1.000
    C67     C    0.00000   0.80431   0.68749   1.000
    C68     C    0.46607   0.70747   0.67955   1.000
    C69     C    0.00000   0.70995   0.67598   1.000
    C70     C    0.53110   0.64531   0.74636   1.000
    C71     C    0.02524   0.64650   0.74219   1.000
    C72     C    0.63812   0.76336   0.82961   1.000
    C73     C    0.13467   0.76243   0.82741   1.000
    C74     C    0.57511   0.83004   0.76659   1.000
    C75     C    0.07368   0.83038   0.76515   1.000
    C76     C    0.59764   0.62782   0.12365   1.000
    C77     C    0.09244   0.62509   0.12015   1.000
    C78     C    0.01721   0.69621   0.18790   1.000
    C79     C    0.51726   0.69782   0.19102   1.000
    C80     C    0.04196   0.79040   0.17605   1.000
    C81     C    0.53954   0.79245   0.18066   1.000
    C82     C    0.97990   0.85387   0.24233   1.000
    C83     C    0.47383   0.85465   0.24724   1.000
    C84     C    0.86769   0.73829   0.32842   1.000
    C85     C    0.36245   0.73691   0.33060   1.000
    C86     C    0.92789   0.67031   0.26610   1.000
    C87     C    0.42634   0.67017   0.26796   1.000
    N88     N    0.89211   0.32885   0.18238   1.000
    N89     N    0.38373   0.32776   0.17787   1.000
    N90     N    0.61585   0.17218   0.67905   1.000
    N91     N    0.11021   0.17108   0.68247   1.000
    N92     N    0.61637   0.67203   0.82073   1.000
    N93     N    0.11079   0.67149   0.81715   1.000
    N94     N    0.89343   0.82905   0.31778   1.000
    N95     N    0.38587   0.82810   0.32146   1.000
    O96     O    0.65255   0.16008   0.44967   1.000
    O97     O    0.15466   0.15613   0.45254   1.000
    O98     O    0.59964   0.04277   0.35157   1.000
    O99     O    0.08931   0.03987   0.35606   1.000
    O100    O    0.84497   0.34357   0.95283   1.000
    O101    O    0.34027   0.33966   0.94955   1.000
    O102    O    0.91134   0.45991   0.85551   1.000
    O103    O    0.40766   0.45748   0.85442   1.000
    O104    O    0.84547   0.84395   0.54744   1.000
    O105    O    0.34088   0.83970   0.55071   1.000
    O106    O    0.91084   0.96035   0.64373   1.000
    O107    O    0.40753   0.95736   0.64492   1.000
    O108    O    0.65940   0.66018   0.05046   1.000
    O109    O    0.15545   0.65642   0.04690   1.000
    O110    O    0.59977   0.54287   0.14828   1.000
    O111    O    0.08909   0.54010   0.14431   1.000
loop_
    _geom_bond_atom_site_label_1
    _geom_bond_atom_site_label_2
    _geom_bond_distance
    _geom_bond_site_symmetry_2
    _ccdc_geom_bond_type
    O109   C77       1.26597      .   S
    O109   Ag6       2.27167  1_554   S
    O108   C76       1.26697      .   S
    O108   Ag5       2.26929  1_554   S
    Ag2    O111      2.24522      .   S
    Ag2    N89       2.36004      .   S
    Ag2    Ag6       2.80351  1_554   S
    Ag2    O101      2.26464  1_554   S
    Ag1    O110      2.24683      .   S
    Ag1    N88       2.35353      .   S
    Ag1    Ag5       2.80189  1_554   S
    Ag1    O100      2.27120  1_554   S
    H12    C49       1.09071      .   S
    H11    C48       1.09075      .   S
    H31    C80       1.08851      .   S
    C77    O111      1.27692      .   S
    C77    C78       1.51063      .   S
    H33    C81       1.08862      .   S
    C76    O110      1.27502      .   S
    C76    C79       1.51121      .   S
    C49    N89       1.34974      .   S
    C49    C51       1.39133      .   S
    C48    N88       1.34993      .   S
    C48    C50       1.39147      .   S
    C80    C78       1.39882      .   S
    C80    C82       1.39133  1_455   S
    N89    C47       1.34870      .   S
    C81    C79       1.39865      .   S
    C81    C83       1.39185      .   S
    N88    C46       1.34872      .   S
    C78    C86       1.39751  1_455   S
    C79    C87       1.39762      .   S
    H14    C51       1.08837      .   S
    H13    C50       1.08834      .   S
    C51    C43       1.39761      .   S
    C50    C42       1.39758  1_655   S
    H34    C82       1.09059  1_455   S
    C82    N94       1.34878      .   S
    H35    C83       1.09066      .   S
    C83    N95       1.34882      .   S
    C47    H10       1.09064      .   S
    C47    C45       1.39175      .   S
    C46    H9        1.09054      .   S
    C46    C44       1.39124  1_655   S
    C86    H38       1.08835      .   S
    C86    C84       1.39150      .   S
    C87    H39       1.08837      .   S
    C87    C85       1.39124      .   S
    C43    C45       1.39863      .   S
    C43    C40       1.51127      .   S
    C42    C44       1.39871      .   S
    C42    C41       1.51049      .   S
    N94    C84       1.34990      .   S
    N94    Ag3       2.35538      .   S
    C45    H8        1.08859      .   S
    N95    C85       1.34979      .   S
    N95    Ag4       2.35942      .   S
    C44    H7        1.08845      .   S
    C84    H36       1.09079      .   S
    C85    H37       1.09076      .   S
    O98    C40       1.27514      .   S
    O98    Ag3       2.24765  1_545   S
    O99    C41       1.27697      .   S
    O99    Ag4       2.24831  1_545   S
    C40    O96       1.26672      .   S
    C41    O97       1.26633      .   S
    Ag3    O104      2.27263      .   S
    Ag3    Ag32      2.80166  1_565   S
    Ag4    O105      2.26741      .   S
    Ag4    Ag0       2.80556  1_565   S
    O96    Ag32      2.27103      .   S
    O97    Ag0       2.27099      .   S
    O104   C64       1.26663      .   S
    O105   C65       1.26702      .   S
    Ag32   O106      2.25372  1_545   S
    Ag32   N90       2.35961      .   S
    Ag0    O107      2.24771  1_545   S
    Ag0    N91       2.35669      .   S
    H19    C60       1.09075      .   S
    H20    C61       1.09081      .   S
    H24    C69       0.91891      .   S
    C64    O106      1.27682      .   S
    C64    C67       1.55713  1_655   S
    H23    C68       1.08856      .   S
    C65    O107      1.27537      .   S
    C65    C66       1.51152      .   S
    C60    N90       1.34973      .   S
    C60    C62       1.39144      .   S
    C61    N91       1.35000      .   S
    C61    C63       1.39163      .   S
    C69    C67       1.37346      .   S
    C69    C71       1.32814      .   S
    N90    C58       1.34870      .   S
    C68    C66       1.39877      .   S
    C68    C70       1.39184      .   S
    N91    C59       1.34882      .   S
    C67    C75       1.33864      .   S
    C66    C74       1.39774      .   S
    H22    C63       1.08840      .   S
    H21    C62       1.08837      .   S
    C62    C54       1.39762      .   S
    C63    C55       1.33719      .   S
    H26    C71       1.09056      .   S
    C71    N93       1.34881      .   S
    H25    C70       1.09063      .   S
    C70    N92       1.34880      .   S
    C58    H17       1.09068      .   S
    C58    C56       1.39171      .   S
    C59    H18       1.09061      .   S
    C59    C57       1.32944      .   S
    C75    H30       1.08838      .   S
    C75    C73       1.39154      .   S
    C74    H29       1.08834      .   S
    C74    C72       1.39140      .   S
    C54    C56       1.39880      .   S
    C54    C53       1.51123      .   S
    C55    C57       1.37110      .   S
    C55    C52       1.55787  1_455   S
    N93    C73       1.35004      .   S
    N93    Ag6       2.35352      .   S
    C56    H15       1.08857      .   S
    N92    C72       1.34982      .   S
    N92    Ag5       2.36002      .   S
    C57    H16       0.91928      .   S
    C73    H28       1.09073      .   S
    C72    H27       1.09073      .   S
    O103   C53       1.27501      .   S
    O103   Ag6       2.24779      .   S
    O102   C52       1.27659      .   S
    O102   Ag5       2.25066      .   S
    C53    O101      1.26700      .   S
    C52    O100      1.26648      .   S
