# CIF file generated by openbabel 2.4.90, see http://openbabel.sf.net
data_I
_chemical_name_common ''
_cell_length_a 7.983
_cell_length_b 14.441
_cell_length_c 14.453
_cell_angle_alpha 89.786
_cell_angle_beta 89.654
_cell_angle_gamma 85.679
_space_group_name_H-M_alt 'P 1'
_space_group_name_Hall 'P 1'
loop_
    _symmetry_equiv_pos_as_xyz
    x,y,z
loop_
    _atom_site_label
    _atom_site_type_symbol
    _atom_site_fract_x
    _atom_site_fract_y
    _atom_site_fract_z
    _atom_site_occupancy
    Ag0     Ag   0.22962   0.06291   0.57462   1.000
    Ag1     Ag   0.77342   0.43727   0.07489   1.000
    Ag2     Ag   0.25704   0.43314   0.06931   1.000
    Ag3     Ag   0.77362   0.93757   0.42502   1.000
    Ag4     Ag   0.25932   0.93323   0.43029   1.000
    Ag5     Ag   0.74098   0.56670   0.92999   1.000
    Ag6     Ag   0.22985   0.56332   0.92478   1.000
    Ag7     Ag   0.73843   0.06645   0.56955   1.000
    C8      C    0.59422   0.12763   0.37626   1.000
    C9      C    0.09174   0.12482   0.37988   1.000
    C10     C    0.90845   0.37493   0.87969   1.000
    C11     C    0.40596   0.37227   0.87760   1.000
    C12     C    0.90862   0.87537   0.62001   1.000
    C13     C    0.40630   0.87218   0.62213   1.000
    C14     C    0.59764   0.62782   0.12365   1.000
    C15     C    0.09244   0.62509   0.12015   1.000
    O16     O    0.65255   0.16008   0.44967   1.000
    O17     O    0.15466   0.15613   0.45254   1.000
    O18     O    0.59964   0.04277   0.35157   1.000
    O19     O    0.08931   0.03987   0.35606   1.000
    O20     O    0.84497   0.34357   0.95283   1.000
    O21     O    0.34027   0.33966   0.94955   1.000
    O22     O    0.91134   0.45991   0.85551   1.000
    O23     O    0.40766   0.45748   0.85442   1.000
    O24     O    0.84547   0.84395   0.54744   1.000
    O25     O    0.34088   0.83970   0.55071   1.000
    O26     O    0.91084   0.96035   0.64373   1.000
    O27     O    0.40753   0.95736   0.64492   1.000
    O28     O    0.65940   0.66018   0.05046   1.000
    O29     O    0.15545   0.65642   0.04690   1.000
    O30     O    0.59977   0.54287   0.14828   1.000
    O31     O    0.08909   0.54010   0.14431   1.000
loop_
    _geom_bond_atom_site_label_1
    _geom_bond_atom_site_label_2
    _geom_bond_distance
    _geom_bond_site_symmetry_2
    _ccdc_geom_bond_type
    O29    C15       1.26597      .   S
    O29    Ag6       2.27167  1_554   S
    O28    C14       1.26697      .   S
    O28    Ag5       2.26929  1_554   S
    Ag2    O31       2.24522      .   S
    Ag2    Ag6       2.80351  1_554   S
    Ag2    O21       2.26464  1_554   S
    Ag1    O30       2.24683      .   S
    Ag1    Ag5       2.80189  1_554   S
    Ag1    O20       2.27120  1_554   S
    C15    O31       1.27692      .   S
    C14    O30       1.27502      .   S
    O18    C8        1.27514      .   S
    O18    Ag3       2.24765  1_545   S
    O19    C9        1.27697      .   S
    O19    Ag4       2.24831  1_545   S
    C8     O16       1.26672      .   S
    C9     O17       1.26633      .   S
    Ag3    O24       2.27263      .   S
    Ag3    Ag7       2.80166  1_565   S
    Ag4    O25       2.26741      .   S
    Ag4    Ag0       2.80556  1_565   S
    O16    Ag7       2.27103      .   S
    O17    Ag0       2.27099      .   S
    O24    C12       1.26663      .   S
    O25    C13       1.26702      .   S
    Ag7    O26       2.25372  1_545   S
    Ag0    O27       2.24771  1_545   S
    C12    O26       1.27682      .   S
    C13    O27       1.27537      .   S
    O23    C11       1.27501      .   S
    O23    Ag6       2.24779      .   S
    O22    C10       1.27659      .   S
    O22    Ag5       2.25066      .   S
    C11    O21       1.26700      .   S
    C10    O20       1.26648      .   S
