# CIF file generated by openbabel 2.4.90, see http://openbabel.sf.net
data_I
_chemical_name_common ''
_cell_length_a 7.983
_cell_length_b 14.441
_cell_length_c 14.453
_cell_angle_alpha 89.786
_cell_angle_beta 89.654
_cell_angle_gamma 85.679
_space_group_name_H-M_alt 'P 1'
_space_group_name_Hall 'P 1'
loop_
    _symmetry_equiv_pos_as_xyz
    x,y,z
loop_
    _atom_site_label
    _atom_site_type_symbol
    _atom_site_fract_x
    _atom_site_fract_y
    _atom_site_fract_z
    _atom_site_occupancy
    C0      C    0.59422   0.12763   0.37626   1.000
    C1      C    0.09174   0.12482   0.37988   1.000
    C2      C    0.90845   0.37493   0.87969   1.000
    C3      C    0.40596   0.37227   0.87760   1.000
    C4      C    0.90862   0.87537   0.62001   1.000
    C5      C    0.40630   0.87218   0.62213   1.000
    C6      C    0.59764   0.62782   0.12365   1.000
    C7      C    0.09244   0.62509   0.12015   1.000
