# CIF file generated by openbabel 2.4.90, see http://openbabel.sf.net
data_I
_chemical_name_common ''
_cell_length_a 18.39
_cell_length_b 18.388
_cell_length_c 18.393
_cell_angle_alpha 60.437
_cell_angle_beta 60.428
_cell_angle_gamma 60.436
_space_group_name_H-M_alt 'P 1'
_space_group_name_Hall 'P 1'
loop_
    _symmetry_equiv_pos_as_xyz
    x,y,z
loop_
    _atom_site_label
    _atom_site_type_symbol
    _atom_site_fract_x
    _atom_site_fract_y
    _atom_site_fract_z
    _atom_site_occupancy
    Zn0     Zn   0.20697   0.38015   0.20696   1.000
    Zn1     Zn   0.20704   0.20697   0.38011   1.000
    Zn2     Zn   0.20596   0.20605   0.20601   1.000
    Zn3     Zn   0.79302   0.61985   0.79302   1.000
    Zn4     Zn   0.61982   0.79303   0.79290   1.000
    Zn5     Zn   0.79295   0.79303   0.61987   1.000
    Zn6     Zn   0.79403   0.79395   0.79397   1.000
    H7      H    0.33587   0.04849   0.56783   1.000
    H8      H    0.04682   0.33593   0.04701   1.000
    H9      H    0.56798   0.04855   0.33590   1.000
    H10     H    0.04925   0.56717   0.04923   1.000
    H11     H    0.33588   0.56786   0.04848   1.000
    H12     H    0.04931   0.04926   0.56709   1.000
    H13     H    0.56794   0.33588   0.04860   1.000
    H14     H    0.04681   0.04701   0.33596   1.000
    H15     H    0.33593   0.04698   0.04698   1.000
    H16     H    0.04848   0.56793   0.33590   1.000
    H17     H    0.56727   0.04917   0.04920   1.000
    H18     H    0.04855   0.33588   0.56780   1.000
    H19     H    0.95145   0.66412   0.43213   1.000
    H20     H    0.66406   0.95300   0.95301   1.000
    H21     H    0.95151   0.43207   0.66408   1.000
    H22     H    0.43272   0.95081   0.95079   1.000
    H23     H    0.43205   0.66413   0.95139   1.000
    H24     H    0.95068   0.95075   0.43289   1.000
    H25     H    0.66411   0.43214   0.95151   1.000
    H26     H    0.95318   0.95300   0.66402   1.000
    H27     H    0.95317   0.66407   0.95298   1.000
    H28     H    0.43201   0.95145   0.66408   1.000
    H29     H    0.95073   0.43283   0.95076   1.000
    H30     H    0.66412   0.95151   0.43214   1.000
    C31     C    0.40777   0.02686   0.53891   1.000
    Zn32    Zn   0.38017   0.20697   0.20703   1.000
    C33     C    0.02594   0.40780   0.02605   1.000
    C34     C    0.53898   0.02690   0.40778   1.000
    C35     C    0.02728   0.53852   0.02727   1.000
    C36     C    0.40778   0.53893   0.02684   1.000
    C37     C    0.02731   0.02729   0.53840   1.000
    C38     C    0.53896   0.40777   0.02692   1.000
    C39     C    0.02593   0.02605   0.40781   1.000
    C40     C    0.40781   0.02602   0.02603   1.000
    C41     C    0.02685   0.53896   0.40770   1.000
    C42     C    0.53857   0.02724   0.02727   1.000
    C43     C    0.02689   0.40777   0.53891   1.000
    C44     C    0.97310   0.59223   0.46107   1.000
    C45     C    0.59219   0.97396   0.97396   1.000
    C46     C    0.97314   0.46104   0.59220   1.000
    C47     C    0.46143   0.97274   0.97272   1.000
    C48     C    0.46103   0.59223   0.97307   1.000
    C49     C    0.97268   0.97271   0.46150   1.000
    C50     C    0.59221   0.46107   0.97315   1.000
    C51     C    0.97406   0.97395   0.59217   1.000
    C52     C    0.97404   0.59220   0.97394   1.000
    C53     C    0.46102   0.97310   0.59220   1.000
    C54     C    0.97270   0.46148   0.97270   1.000
    C55     C    0.59222   0.97315   0.46107   1.000
    C56     C    0.38914   0.11178   0.38909   1.000
    C57     C    0.44642   0.05408   0.44638   1.000
    C58     C    0.11089   0.38840   0.11102   1.000
    C59     C    0.05358   0.44598   0.05368   1.000
    C60     C    0.38911   0.38909   0.11180   1.000
    C61     C    0.44641   0.44638   0.05409   1.000
    C62     C    0.11093   0.11103   0.38837   1.000
    C63     C    0.05361   0.05368   0.44596   1.000
    C64     C    0.38846   0.11098   0.11100   1.000
    C65     C    0.44602   0.05364   0.05365   1.000
    C66     C    0.11179   0.38911   0.38907   1.000
    C67     C    0.05407   0.44640   0.44638   1.000
    C68     C    0.88820   0.61089   0.61091   1.000
    C69     C    0.94592   0.55359   0.55360   1.000
    C70     C    0.61153   0.88902   0.88899   1.000
    C71     C    0.55397   0.94635   0.94634   1.000
    C72     C    0.61088   0.61091   0.88818   1.000
    C73     C    0.55358   0.55362   0.94590   1.000
    C74     C    0.88906   0.88897   0.61161   1.000
    C75     C    0.94638   0.94633   0.55402   1.000
    C76     C    0.88909   0.61159   0.88896   1.000
    C77     C    0.94640   0.55402   0.94631   1.000
    C78     C    0.61086   0.88823   0.61089   1.000
    C79     C    0.55357   0.94593   0.55360   1.000
    O80     O    0.24989   0.24988   0.24987   1.000
    O81     O    0.75010   0.75012   0.75011   1.000
    O82     O    0.42860   0.13416   0.30540   1.000
    O83     O    0.13344   0.42783   0.13350   1.000
    O84     O    0.30547   0.13391   0.42853   1.000
    O85     O    0.13253   0.30472   0.13273   1.000
    O86     O    0.42856   0.30543   0.13419   1.000
    O87     O    0.13250   0.13279   0.30471   1.000
    O88     O    0.30544   0.42855   0.13389   1.000
    O89     O    0.13351   0.13351   0.42777   1.000
    O90     O    0.42791   0.13344   0.13355   1.000
    O91     O    0.13409   0.30545   0.42851   1.000
    O92     O    0.30478   0.13266   0.13268   1.000
    O93     O    0.13402   0.42857   0.30543   1.000
    O94     O    0.86598   0.57143   0.69456   1.000
    O95     O    0.57208   0.86656   0.86643   1.000
    O96     O    0.86590   0.69455   0.57147   1.000
    O97     O    0.69521   0.86733   0.86730   1.000
    O98     O    0.69454   0.57146   0.86608   1.000
    O99     O    0.86749   0.86721   0.69527   1.000
    O100    O    0.57142   0.69457   0.86580   1.000
    O101    O    0.86648   0.86649   0.57220   1.000
    O102    O    0.86654   0.57216   0.86648   1.000
    O103    O    0.69452   0.86610   0.57144   1.000
    O104    O    0.86746   0.69528   0.86724   1.000
    O105    O    0.57139   0.86583   0.69453   1.000
loop_
    _geom_bond_atom_site_label_1
    _geom_bond_atom_site_label_2
    _geom_bond_distance
    _geom_bond_site_symmetry_2
    _ccdc_geom_bond_type
    C40    H15       1.08865      .   S
    C40    C65       1.40319      .   S
    C40    C47       1.39065  1_544   S
    C33    H8        1.08865      .   S
    C33    C59       1.40315      .   S
    C33    C54       1.39095  1_454   S
    C36    H11       1.08858      .   S
    C36    C61       1.40312      .   S
    C36    C48       1.39016  1_554   S
    C38    H13       1.08858      .   S
    C38    C61       1.40316      .   S
    C38    C50       1.39018  1_554   S
    C35    H10       1.08856      .   S
    C35    C59       1.40343      .   S
    C35    C52       1.39069  1_454   S
    C42    H17       1.08848      .   S
    C42    C65       1.40347      .   S
    C42    C45       1.39066  1_544   S
    C65    C64       1.49621      .   S
    C59    C58       1.49603      .   S
    C61    C60       1.49500      .   S
    C64    O92       1.27745      .   S
    C64    O90       1.27701      .   S
    C58    O85       1.27743      .   S
    C58    O83       1.27685      .   S
    C60    O88       1.27709      .   S
    C60    O86       1.27699      .   S
    O92    Zn2       1.97465      .   S
    O85    Zn2       1.97427      .   S
    O83    Zn0       1.97157      .   S
    O90    Zn32      1.97130      .   S
    O88    Zn0       1.97119      .   S
    O86    Zn32      1.97096      .   S
    Zn2    O87       1.97411      .   S
    Zn0    O80       1.96662      .   S
    Zn0    O93       1.97151      .   S
    Zn32   O82       1.97053      .   S
    O80    Zn1       1.96652      .   S
    O87    C62       1.27743      .   S
    O82    C56       1.27770      .   S
    O93    C66       1.27700      .   S
    H16    C41       1.08740      .   S
    H9     C34       1.08860      .   S
    H14    C39       1.08860      .   S
    Zn1    O89       1.97116      .   S
    Zn1    O91       1.97126      .   S
    Zn1    O84       1.97124      .   S
    C62    O89       1.27691      .   S
    C62    C63       1.49598      .   S
    C66    O91       1.27704      .   S
    C66    C67       1.49524      .   S
    C56    O84       1.27706      .   S
    C56    C57       1.49509      .   S
    C41    C67       1.40327      .   S
    C41    C44       1.39130  1_455   S
    C34    C57       1.40319      .   S
    C34    C55       1.39023  1_545   S
    C39    C63       1.40322      .   S
    C39    C49       1.39057  1_445   S
    H19    C44       1.08857      .   S
    H30    C55       1.08859      .   S
    H24    C49       1.08849      .   S
    C63    C37       1.40216      .   S
    C57    C31       1.40311      .   S
    C67    C43       1.40310      .   S
    C44    C69       1.40310      .   S
    C55    C79       1.40311      .   S
    C49    C75       1.40344      .   S
    C37    H12       1.08974      .   S
    C37    C51       1.39058  1_445   S
    C43    H18       1.08851      .   S
    C43    C46       1.39026  1_455   S
    C31    H7        1.08857      .   S
    C31    C53       1.39023  1_545   S
    C69    C46       1.40315      .   S
    C69    C68       1.49524      .   S
    C79    C53       1.40318      .   S
    C79    C78       1.49509      .   S
    C75    C51       1.40324      .   S
    C75    C74       1.49598      .   S
    O103   C78       1.27710      .   S
    O103   Zn5       1.97131      .   S
    O96    C68       1.27703      .   S
    O96    Zn5       1.97129      .   S
    O101   C74       1.27707      .   S
    O101   Zn5       1.97114      .   S
    C51    H26       1.08859      .   S
    C53    H28       1.08860      .   S
    C46    H21       1.08857      .   S
    C78    O105      1.27699      .   S
    C68    O94       1.27714      .   S
    C74    O99       1.27743      .   S
    Zn5    O81       1.96652      .   S
    O105   Zn4       1.97052      .   S
    O94    Zn3       1.97137      .   S
    O99    Zn6       1.97411      .   S
    O81    Zn3       1.96662      .   S
    Zn4    O100      1.97097      .   S
    Zn4    O95       1.97202      .   S
    Zn3    O98       1.97120      .   S
    Zn3    O102      1.97136      .   S
    Zn6    O104      1.97420      .   S
    Zn6    O97       1.97458      .   S
    O100   C72       1.27699      .   S
    O98    C72       1.27707      .   S
    O95    C70       1.27707      .   S
    O102   C76       1.27699      .   S
    O104   C76       1.27745      .   S
    O97    C70       1.27742      .   S
    C72    C73       1.49502      .   S
    C76    C77       1.49612      .   S
    C70    C71       1.49616      .   S
    C73    C48       1.40316      .   S
    C73    C50       1.40310      .   S
    C77    C54       1.40345      .   S
    C77    C52       1.40315      .   S
    C71    C47       1.40346      .   S
    C71    C45       1.40317      .   S
    H29    C54       1.08830      .   S
    H22    C47       1.08848      .   S
    H23    C48       1.08860      .   S
    H25    C50       1.08858      .   S
    H27    C52       1.08866      .   S
    H20    C45       1.08865      .   S
    O80    Zn32      1.96676      .   S
    O80    Zn2       1.96992      .   S
    O81    Zn4       1.96674      .   S
    O81    Zn6       1.96995      .   S
