# CIF file generated by openbabel 2.4.90, see http://openbabel.sf.net
data_I
_chemical_name_common ''
_cell_length_a 18.39
_cell_length_b 18.388
_cell_length_c 18.393
_cell_angle_alpha 60.437
_cell_angle_beta 60.428
_cell_angle_gamma 60.436
_space_group_name_H-M_alt 'P 1'
_space_group_name_Hall 'P 1'
loop_
    _symmetry_equiv_pos_as_xyz
    x,y,z
loop_
    _atom_site_label
    _atom_site_type_symbol
    _atom_site_fract_x
    _atom_site_fract_y
    _atom_site_fract_z
    _atom_site_occupancy
    N0      N    0.50000   0.00000   0.49999   1.000
    N1      N    0.49999   0.50000   0.99999   1.000
    N2      N    0.99999   0.50000   0.99999   1.000
    N3      N    0.99999   0.00000   0.49998   1.000
    N4      N    0.50000   0.99999   0.99999   1.000
    N5      N    1.00000   0.50000   0.49998   1.000
    Zr6     Zr   0.74994   0.74994   0.74992   1.000
    O7      O    0.85440   0.64567   0.85437   1.000
    O8      O    0.85440   0.85438   0.64566   1.000
    O9      O    0.64552   0.85424   0.64552   1.000
    O10     O    0.64553   0.64554   0.85422   1.000
    O11     O    0.64566   0.85439   0.85438   1.000
    O12     O    0.85423   0.64553   0.64552   1.000
    Zr13    Zr   0.25005   0.25006   0.25005   1.000
    O14     O    0.35447   0.14576   0.35446   1.000
    O15     O    0.35434   0.14561   0.14561   1.000
    O16     O    0.35446   0.35447   0.14576   1.000
    O17     O    0.14558   0.35433   0.14561   1.000
    O18     O    0.14559   0.14562   0.35431   1.000
    O19     O    0.14576   0.35447   0.35445   1.000
loop_
    _geom_bond_atom_site_label_1
    _geom_bond_atom_site_label_2
    _geom_bond_distance
    _geom_bond_site_symmetry_2
    _ccdc_geom_bond_type
    Zr6    O7        2.72595      .   S
    N2     O7        3.79990      .   S
    Zr6    O8        2.72515      .   S
    N3     O8        3.79899  1_545   S
    Zr6    O9        2.72476      .   S
    N0     O9        3.79788  1_545   S
    Zr6    O10       2.72401      .   S
    N1     O10       3.79705      .   S
    Zr6    O11       2.72534      .   S
    N4     O11       3.79934      .   S
    Zr6    O12       2.72414      .   S
    N5     O12       3.79738      .   S
    Zr13   O14       2.72480      .   S
    N0     O14       3.79791      .   S
    Zr13   O15       2.72531      .   S
    N4     O15       3.79933  1_566   S
    Zr13   O16       2.72400      .   S
    N1     O16       3.79705  1_556   S
    Zr13   O17       2.72593      .   S
    N2     O17       3.79989  1_656   S
    Zr13   O18       2.72514      .   S
    N3     O18       3.79898  1_655   S
    Zr13   O19       2.72408      .   S
    N5     O19       3.79715  1_655   S
