# CIF file generated by openbabel 2.4.90, see http://openbabel.sf.net
data_I
_chemical_name_common ''
_cell_length_a 18.39
_cell_length_b 18.388
_cell_length_c 18.393
_cell_angle_alpha 60.437
_cell_angle_beta 60.428
_cell_angle_gamma 60.436
_space_group_name_H-M_alt 'P 1'
_space_group_name_Hall 'P 1'
loop_
    _symmetry_equiv_pos_as_xyz
    x,y,z
loop_
    _atom_site_label
    _atom_site_type_symbol
    _atom_site_fract_x
    _atom_site_fract_y
    _atom_site_fract_z
    _atom_site_occupancy
    C0      C    0.38017   0.20697   0.20703   1.000
    C1      C    0.20697   0.38015   0.20696   1.000
    C2      C    0.20704   0.20697   0.38011   1.000
    C3      C    0.20596   0.20605   0.20601   1.000
    C4      C    0.79302   0.61985   0.79302   1.000
    C5      C    0.61982   0.79303   0.79290   1.000
    C6      C    0.79295   0.79303   0.61987   1.000
    C7      C    0.79403   0.79395   0.79397   1.000
    C8      C    0.33587   0.04849   0.56783   1.000
    C9      C    0.04682   0.33593   0.04701   1.000
    C10     C    0.56798   0.04855   0.33590   1.000
    C11     C    0.04925   0.56717   0.04923   1.000
    C12     C    0.33588   0.56786   0.04848   1.000
    C13     C    0.04931   0.04926   0.56709   1.000
    C14     C    0.56794   0.33588   0.04860   1.000
    C15     C    0.04681   0.04701   0.33596   1.000
    C16     C    0.33593   0.04698   0.04698   1.000
    C17     C    0.04848   0.56793   0.33590   1.000
    C18     C    0.56727   0.04917   0.04920   1.000
    C19     C    0.04855   0.33588   0.56780   1.000
    C20     C    0.95145   0.66412   0.43213   1.000
    C21     C    0.66406   0.95300   0.95301   1.000
    C22     C    0.95151   0.43207   0.66408   1.000
    C23     C    0.43272   0.95081   0.95079   1.000
    C24     C    0.43205   0.66413   0.95139   1.000
    C25     C    0.95068   0.95075   0.43289   1.000
    C26     C    0.66411   0.43214   0.95151   1.000
    C27     C    0.95318   0.95300   0.66402   1.000
    C28     C    0.95317   0.66407   0.95298   1.000
    C29     C    0.43201   0.95145   0.66408   1.000
    C30     C    0.95073   0.43283   0.95076   1.000
    C31     C    0.66412   0.95151   0.43214   1.000
    C32     C    0.40777   0.02686   0.53891   1.000
    C33     C    0.02594   0.40780   0.02605   1.000
    C34     C    0.53898   0.02690   0.40778   1.000
    C35     C    0.02728   0.53852   0.02727   1.000
    C36     C    0.40778   0.53893   0.02684   1.000
    C37     C    0.02731   0.02729   0.53840   1.000
    C38     C    0.53896   0.40777   0.02692   1.000
    C39     C    0.02593   0.02605   0.40781   1.000
    C40     C    0.40781   0.02602   0.02603   1.000
    C41     C    0.02685   0.53896   0.40770   1.000
    C42     C    0.53857   0.02724   0.02727   1.000
    C43     C    0.02689   0.40777   0.53891   1.000
    C44     C    0.97310   0.59223   0.46107   1.000
    C45     C    0.59219   0.97396   0.97396   1.000
    C46     C    0.97314   0.46104   0.59220   1.000
    C47     C    0.46143   0.97274   0.97272   1.000
    C48     C    0.46103   0.59223   0.97307   1.000
    C49     C    0.97268   0.97271   0.46150   1.000
    C50     C    0.59221   0.46107   0.97315   1.000
    C51     C    0.97406   0.97395   0.59217   1.000
    C52     C    0.97404   0.59220   0.97394   1.000
    C53     C    0.46102   0.97310   0.59220   1.000
    C54     C    0.97270   0.46148   0.97270   1.000
    C55     C    0.59222   0.97315   0.46107   1.000
    C56     C    0.38914   0.11178   0.38909   1.000
    C57     C    0.44642   0.05408   0.44638   1.000
    C58     C    0.11089   0.38840   0.11102   1.000
    C59     C    0.05358   0.44598   0.05368   1.000
    C60     C    0.38911   0.38909   0.11180   1.000
    C61     C    0.44641   0.44638   0.05409   1.000
    C62     C    0.11093   0.11103   0.38837   1.000
    C63     C    0.05361   0.05368   0.44596   1.000
    C64     C    0.38846   0.11098   0.11100   1.000
    C65     C    0.44602   0.05364   0.05365   1.000
    C66     C    0.11179   0.38911   0.38907   1.000
    C67     C    0.05407   0.44640   0.44638   1.000
    C68     C    0.88820   0.61089   0.61091   1.000
    C69     C    0.94592   0.55359   0.55360   1.000
    C70     C    0.61153   0.88902   0.88899   1.000
    C71     C    0.55397   0.94635   0.94634   1.000
    C72     C    0.61088   0.61091   0.88818   1.000
    C73     C    0.55358   0.55362   0.94590   1.000
    C74     C    0.88906   0.88897   0.61161   1.000
    C75     C    0.94638   0.94633   0.55402   1.000
    C76     C    0.88909   0.61159   0.88896   1.000
    C77     C    0.94640   0.55402   0.94631   1.000
    C78     C    0.61086   0.88823   0.61089   1.000
    C79     C    0.55357   0.94593   0.55360   1.000
    C80     C    0.24989   0.24988   0.24987   1.000
    C81     C    0.75010   0.75012   0.75011   1.000
    C82     C    0.42860   0.13416   0.30540   1.000
    C83     C    0.13344   0.42783   0.13350   1.000
    C84     C    0.30547   0.13391   0.42853   1.000
    C85     C    0.13253   0.30472   0.13273   1.000
    C86     C    0.42856   0.30543   0.13419   1.000
    C87     C    0.13250   0.13279   0.30471   1.000
    C88     C    0.30544   0.42855   0.13389   1.000
    C89     C    0.13351   0.13351   0.42777   1.000
    C90     C    0.42791   0.13344   0.13355   1.000
    C91     C    0.13409   0.30545   0.42851   1.000
    C92     C    0.30478   0.13266   0.13268   1.000
    C93     C    0.13402   0.42857   0.30543   1.000
    C94     C    0.86598   0.57143   0.69456   1.000
    C95     C    0.57208   0.86656   0.86643   1.000
    C96     C    0.86590   0.69455   0.57147   1.000
    C97     C    0.69521   0.86733   0.86730   1.000
    C98     C    0.69454   0.57146   0.86608   1.000
    C99     C    0.86749   0.86721   0.69527   1.000
    C100    C    0.57142   0.69457   0.86580   1.000
    C101    C    0.86648   0.86649   0.57220   1.000
    C102    C    0.86654   0.57216   0.86648   1.000
    C103    C    0.69452   0.86610   0.57144   1.000
    C104    C    0.86746   0.69528   0.86724   1.000
    C105    C    0.57139   0.86583   0.69453   1.000
    O106    O    0.37187   0.03650   0.03650   1.000
    O107    O    0.42691   0.03983   0.03984   1.000
    O108    O    0.43462   0.99938   0.99937   1.000
    O109    O    0.03638   0.37186   0.03653   1.000
    O110    O    0.03976   0.42689   0.03986   1.000
    O111    O    0.99932   0.43464   0.99937   1.000
    O112    O    0.37183   0.55340   0.03766   1.000
    O113    O    0.42709   0.49266   0.04046   1.000
    O114    O    0.43440   0.56558   0.99995   1.000
    O115    O    0.55345   0.37182   0.03776   1.000
    O116    O    0.49268   0.42708   0.04050   1.000
    O117    O    0.56559   0.43442   0.00003   1.000
    O118    O    0.03827   0.55284   0.03825   1.000
    O119    O    0.04043   0.49225   0.04047   1.000
    O120    O    0.00066   0.56536   0.00061   1.000
    O121    O    0.55292   0.03821   0.03823   1.000
    O122    O    0.49229   0.04044   0.04046   1.000
    O123    O    0.56538   0.00060   0.00061   1.000
    O124    O    0.41724   0.08231   0.08232   1.000
    O125    O    0.08224   0.41719   0.08235   1.000
    O126    O    0.41776   0.41774   0.08294   1.000
    O127    O    0.34662   0.12182   0.12184   1.000
    O128    O    0.40819   0.12221   0.12227   1.000
    O129    O    0.12171   0.34656   0.12187   1.000
    O130    O    0.12217   0.40812   0.12226   1.000
    O131    O    0.34728   0.40882   0.12284   1.000
    O132    O    0.40884   0.34726   0.12299   1.000
    O133    O    0.25537   0.16936   0.16934   1.000
    O134    O    0.16925   0.25538   0.16937   1.000
    O135    O    0.17020   0.40399   0.17023   1.000
    O136    O    0.40404   0.17021   0.17029   1.000
    O137    O    0.25621   0.40435   0.17042   1.000
    O138    O    0.40437   0.25620   0.17061   1.000
    O139    O    0.16923   0.16942   0.25536   1.000
    O140    O    0.22843   0.31501   0.22841   1.000
    O141    O    0.17050   0.40436   0.25619   1.000
    O142    O    0.40438   0.17057   0.25621   1.000
    O143    O    0.22846   0.22843   0.31499   1.000
    O144    O    0.12171   0.12191   0.34654   1.000
    O145    O    0.40887   0.12297   0.34724   1.000
    O146    O    0.12291   0.40884   0.34725   1.000
    O147    O    0.03767   0.55344   0.37180   1.000
    O148    O    0.55348   0.03773   0.37184   1.000
    O149    O    0.03637   0.03653   0.37189   1.000
    O150    O    0.17028   0.17024   0.40394   1.000
    O151    O    0.17056   0.25621   0.40431   1.000
    O152    O    0.25626   0.17044   0.40432   1.000
    O153    O    0.12222   0.12227   0.40807   1.000
    O154    O    0.08227   0.08236   0.41717   1.000
    O155    O    0.12294   0.34728   0.40879   1.000
    O156    O    0.08293   0.41776   0.41772   1.000
    O157    O    0.34731   0.12284   0.40881   1.000
    O158    O    0.41778   0.08293   0.41773   1.000
    O159    O    0.04046   0.49268   0.42704   1.000
    O160    O    0.99998   0.56559   0.43438   1.000
    O161    O    0.49270   0.04049   0.42708   1.000
    O162    O    0.56560   0.00003   0.43442   1.000
    O163    O    0.03977   0.03987   0.42688   1.000
    O164    O    0.99930   0.99938   0.43465   1.000
    O165    O    0.96228   0.62817   0.44660   1.000
    O166    O    0.62817   0.96233   0.44660   1.000
    O167    O    0.96168   0.96173   0.44719   1.000
    O168    O    0.04046   0.04049   0.49218   1.000
    O169    O    0.42710   0.04047   0.49264   1.000
    O170    O    0.04048   0.42709   0.49264   1.000
    O171    O    0.95951   0.57291   0.50733   1.000
    O172    O    0.57290   0.95954   0.50733   1.000
    O173    O    0.95953   0.95952   0.50776   1.000
    O174    O    0.03831   0.03828   0.55274   1.000
    O175    O    0.00068   0.00062   0.56528   1.000
    O176    O    0.03772   0.37183   0.55335   1.000
    O177    O    0.00002   0.43441   0.56556   1.000
    O178    O    0.37182   0.03767   0.55337   1.000
    O179    O    0.43439   0.99998   0.56556   1.000
    O180    O    0.95953   0.50732   0.57290   1.000
    O181    O    0.91706   0.58224   0.58225   1.000
    O182    O    0.50729   0.95951   0.57290   1.000
    O183    O    0.58221   0.91708   0.58224   1.000
    O184    O    0.96022   0.96014   0.57309   1.000
    O185    O    0.91772   0.91765   0.58281   1.000
    O186    O    0.65269   0.87716   0.59116   1.000
    O187    O    0.74374   0.82956   0.59565   1.000
    O188    O    0.87705   0.65272   0.59119   1.000
    O189    O    0.82943   0.74379   0.59567   1.000
    O190    O    0.87777   0.87773   0.59190   1.000
    O191    O    0.82972   0.82976   0.59603   1.000
    O192    O    0.96362   0.96348   0.62809   1.000
    O193    O    0.44651   0.96227   0.62814   1.000
    O194    O    0.96233   0.44656   0.62814   1.000
    O195    O    0.59112   0.87703   0.65271   1.000
    O196    O    0.87709   0.59116   0.65273   1.000
    O197    O    0.87827   0.87809   0.65344   1.000
    O198    O    0.77153   0.77157   0.68499   1.000
    O199    O    0.59561   0.82943   0.74372   1.000
    O200    O    0.82950   0.59564   0.74379   1.000
    O201    O    0.83076   0.83058   0.74462   1.000
    O202    O    0.77156   0.68498   0.77156   1.000
    O203    O    0.59562   0.74380   0.82935   1.000
    O204    O    0.59595   0.82979   0.82966   1.000
    O205    O    0.74378   0.59565   0.82955   1.000
    O206    O    0.82978   0.59601   0.82975   1.000
    O207    O    0.83075   0.74462   0.83060   1.000
    O208    O    0.74462   0.83064   0.83063   1.000
    O209    O    0.59115   0.65274   0.87699   1.000
    O210    O    0.65271   0.59119   0.87713   1.000
    O211    O    0.59181   0.87779   0.87771   1.000
    O212    O    0.87781   0.59188   0.87772   1.000
    O213    O    0.87828   0.65344   0.87810   1.000
    O214    O    0.65337   0.87817   0.87814   1.000
    O215    O    0.58223   0.58227   0.91704   1.000
    O216    O    0.91775   0.58281   0.91763   1.000
    O217    O    0.58275   0.91768   0.91766   1.000
    O218    O    0.50731   0.57293   0.95948   1.000
    O219    O    0.57290   0.50734   0.95952   1.000
    O220    O    0.95955   0.50775   0.95950   1.000
    O221    O    0.96022   0.57311   0.96012   1.000
    O222    O    0.50770   0.95955   0.95953   1.000
    O223    O    0.57308   0.96015   0.96015   1.000
    O224    O    0.96171   0.44715   0.96173   1.000
    O225    O    0.44708   0.96178   0.96175   1.000
    O226    O    0.44654   0.62818   0.96223   1.000
    O227    O    0.62816   0.44661   0.96233   1.000
    O228    O    0.96360   0.62814   0.96346   1.000
    O229    O    0.62812   0.96348   0.96348   1.000
    O230    O    0.31503   0.22842   0.22845   1.000
    O231    O    0.22793   0.22796   0.22794   1.000
    O232    O    0.68496   0.77158   0.77150   1.000
    O233    O    0.77207   0.77204   0.77204   1.000
loop_
    _geom_bond_atom_site_label_1
    _geom_bond_atom_site_label_2
    _geom_bond_distance
    _geom_bond_site_symmetry_2
    _ccdc_geom_bond_type
    C40    O106      0.54432      .   S
    C16    O106      0.54432      .   S
    C40    O107      0.70159      .   S
    C65    O107      0.70159      .   S
    C40    O108      0.69532  1_544   S
    C47    O108      0.69532      .   S
    C33    O109      0.54432      .   S
    C9     O109      0.54432      .   S
    C33    O110      0.70158      .   S
    C59    O110      0.70158      .   S
    C33    O111      0.69547  1_454   S
    C54    O111      0.69547      .   S
    C36    O112      0.54429      .   S
    C12    O112      0.54429      .   S
    C36    O113      0.70156      .   S
    C61    O113      0.70156      .   S
    C36    O114      0.69508  1_554   S
    C48    O114      0.69508      .   S
    C38    O115      0.54429      .   S
    C14    O115      0.54429      .   S
    C38    O116      0.70158      .   S
    C61    O116      0.70158      .   S
    C38    O117      0.69509      .   S
    C50    O117      0.69509  1_556   S
    C35    O118      0.54428      .   S
    C11    O118      0.54428      .   S
    C35    O119      0.70172      .   S
    C59    O119      0.70172      .   S
    C35    O120      0.69535      .   S
    C52    O120      0.69535  1_656   S
    C42    O121      0.54424      .   S
    C18    O121      0.54424      .   S
    C42    O122      0.70174      .   S
    C65    O122      0.70174      .   S
    C42    O123      0.69533      .   S
    C45    O123      0.69533  1_566   S
    C65    O124      0.74811      .   S
    C64    O124      0.74811      .   S
    C59    O125      0.74802      .   S
    C58    O125      0.74802      .   S
    C61    O126      0.74750      .   S
    C60    O126      0.74750      .   S
    C64    O127      0.63872      .   S
    C92    O127      0.63872      .   S
    C64    O128      0.63850      .   S
    C90    O128      0.63850      .   S
    C58    O129      0.63872      .   S
    C85    O129      0.63872      .   S
    C58    O130      0.63842      .   S
    C83    O130      0.63842      .   S
    C60    O131      0.63854      .   S
    C88    O131      0.63854      .   S
    C60    O132      0.63850      .   S
    C86    O132      0.63850      .   S
    C92    O133      0.98732      .   S
    C3     O133      0.98732      .   S
    C85    O134      0.98713      .   S
    C3     O134      0.98713      .   S
    C83    O135      0.98579      .   S
    C1     O135      0.98579      .   S
    C90    O136      0.98565      .   S
    C0     O136      0.98565      .   S
    C88    O137      0.98559      .   S
    C1     O137      0.98559      .   S
    C86    O138      0.98548      .   S
    C0     O138      0.98548      .   S
    C3     O139      0.98705      .   S
    C87    O139      0.98705      .   S
    C1     O140      0.98331      .   S
    C80    O140      0.98331      .   S
    C1     O141      0.98575      .   S
    C93    O141      0.98575      .   S
    C0     O142      0.98527      .   S
    C82    O142      0.98527      .   S
    C80    O143      0.98326      .   S
    C2     O143      0.98326      .   S
    C87    O144      0.63871      .   S
    C62    O144      0.63871      .   S
    C82    O145      0.63885      .   S
    C56    O145      0.63885      .   S
    C93    O146      0.63850      .   S
    C66    O146      0.63850      .   S
    C17    O147      0.54370      .   S
    C41    O147      0.54370      .   S
    C10    O148      0.54430      .   S
    C34    O148      0.54430      .   S
    C15    O149      0.54430      .   S
    C39    O149      0.54430      .   S
    C2     O150      0.98558      .   S
    C89    O150      0.98558      .   S
    C2     O151      0.98563      .   S
    C91    O151      0.98563      .   S
    C2     O152      0.98562      .   S
    C84    O152      0.98562      .   S
    C62    O153      0.63845      .   S
    C89    O153      0.63845      .   S
    C62    O154      0.74799      .   S
    C63    O154      0.74799      .   S
    C66    O155      0.63852      .   S
    C91    O155      0.63852      .   S
    C66    O156      0.74762      .   S
    C67    O156      0.74762      .   S
    C56    O157      0.63853      .   S
    C84    O157      0.63853      .   S
    C56    O158      0.74755      .   S
    C57    O158      0.74755      .   S
    C41    O159      0.70164      .   S
    C67    O159      0.70164      .   S
    C41    O160      0.69565  1_455   S
    C44    O160      0.69565      .   S
    C34    O161      0.70160      .   S
    C57    O161      0.70160      .   S
    C34    O162      0.69512      .   S
    C55    O162      0.69512  1_565   S
    C39    O163      0.70161      .   S
    C63    O163      0.70161      .   S
    C39    O164      0.69529  1_445   S
    C49    O164      0.69529      .   S
    C20    O165      0.54429      .   S
    C44    O165      0.54429      .   S
    C31    O166      0.54429      .   S
    C55    O166      0.54429      .   S
    C25    O167      0.54424      .   S
    C49    O167      0.54424      .   S
    C63    O168      0.70108      .   S
    C37    O168      0.70108      .   S
    C57    O169      0.70155      .   S
    C32    O169      0.70155      .   S
    C67    O170      0.70155      .   S
    C43    O170      0.70155      .   S
    C44    O171      0.70155      .   S
    C69    O171      0.70155      .   S
    C55    O172      0.70155      .   S
    C79    O172      0.70155      .   S
    C49    O173      0.70172      .   S
    C75    O173      0.70172      .   S
    C37    O174      0.54487      .   S
    C13    O174      0.54487      .   S
    C37    O175      0.69529      .   S
    C51    O175      0.69529  1_665   S
    C43    O176      0.54426      .   S
    C19    O176      0.54426      .   S
    C43    O177      0.69513      .   S
    C46    O177      0.69513  1_655   S
    C32    O178      0.54429      .   S
    C8     O178      0.54429      .   S
    C32    O179      0.69512  1_545   S
    C53    O179      0.69512      .   S
    C69    O180      0.70157      .   S
    C46    O180      0.70157      .   S
    C69    O181      0.74762      .   S
    C68    O181      0.74762      .   S
    C79    O182      0.70159      .   S
    C53    O182      0.70159      .   S
    C79    O183      0.74755      .   S
    C78    O183      0.74755      .   S
    C75    O184      0.70162      .   S
    C51    O184      0.70162      .   S
    C75    O185      0.74799      .   S
    C74    O185      0.74799      .   S
    C103   O186      0.63855      .   S
    C78    O186      0.63855      .   S
    C103   O187      0.98566      .   S
    C6     O187      0.98566      .   S
    C96    O188      0.63851      .   S
    C68    O188      0.63851      .   S
    C96    O189      0.98564      .   S
    C6     O189      0.98564      .   S
    C101   O190      0.63854      .   S
    C74    O190      0.63854      .   S
    C101   O191      0.98557      .   S
    C6     O191      0.98557      .   S
    C51    O192      0.54430      .   S
    C27    O192      0.54430      .   S
    C53    O193      0.54430      .   S
    C29    O193      0.54430      .   S
    C46    O194      0.54428      .   S
    C22    O194      0.54428      .   S
    C78    O195      0.63850      .   S
    C105   O195      0.63850      .   S
    C68    O196      0.63857      .   S
    C94    O196      0.63857      .   S
    C74    O197      0.63871      .   S
    C99    O197      0.63871      .   S
    C6     O198      0.98326      .   S
    C81    O198      0.98326      .   S
    C105   O199      0.98526      .   S
    C5     O199      0.98526      .   S
    C94    O200      0.98569      .   S
    C4     O200      0.98569      .   S
    C99    O201      0.98705      .   S
    C7     O201      0.98705      .   S
    C81    O202      0.98331      .   S
    C4     O202      0.98331      .   S
    C5     O203      0.98549      .   S
    C100   O203      0.98549      .   S
    C5     O204      0.98601      .   S
    C95    O204      0.98601      .   S
    C4     O205      0.98560      .   S
    C98    O205      0.98560      .   S
    C4     O206      0.98568      .   S
    C102   O206      0.98568      .   S
    C7     O207      0.98710      .   S
    C104   O207      0.98710      .   S
    C7     O208      0.98729      .   S
    C97    O208      0.98729      .   S
    C100   O209      0.63849      .   S
    C72    O209      0.63849      .   S
    C98    O210      0.63854      .   S
    C72    O210      0.63854      .   S
    C95    O211      0.63853      .   S
    C70    O211      0.63853      .   S
    C102   O212      0.63849      .   S
    C76    O212      0.63849      .   S
    C104   O213      0.63873      .   S
    C76    O213      0.63873      .   S
    C97    O214      0.63871      .   S
    C70    O214      0.63871      .   S
    C72    O215      0.74751      .   S
    C73    O215      0.74751      .   S
    C76    O216      0.74806      .   S
    C77    O216      0.74806      .   S
    C70    O217      0.74808      .   S
    C71    O217      0.74808      .   S
    C73    O218      0.70158      .   S
    C48    O218      0.70158      .   S
    C73    O219      0.70155      .   S
    C50    O219      0.70155      .   S
    C77    O220      0.70172      .   S
    C54    O220      0.70172      .   S
    C77    O221      0.70158      .   S
    C52    O221      0.70158      .   S
    C71    O222      0.70173      .   S
    C47    O222      0.70173      .   S
    C71    O223      0.70159      .   S
    C45    O223      0.70159      .   S
    C30    O224      0.54415      .   S
    C54    O224      0.54415      .   S
    C23    O225      0.54424      .   S
    C47    O225      0.54424      .   S
    C24    O226      0.54430      .   S
    C48    O226      0.54430      .   S
    C26    O227      0.54429      .   S
    C50    O227      0.54429      .   S
    C28    O228      0.54433      .   S
    C52    O228      0.54433      .   S
    C21    O229      0.54432      .   S
    C45    O229      0.54432      .   S
    C80    O230      0.98338      .   S
    C0     O230      0.98338      .   S
    C80    O231      0.98496      .   S
    C3     O231      0.98496      .   S
    C81    O232      0.98337      .   S
    C5     O232      0.98337      .   S
    C81    O233      0.98497      .   S
    C7     O233      0.98497      .   S
