# CIF file generated by openbabel 2.4.90, see http://openbabel.sf.net
data_I
_chemical_name_common ''
_cell_length_a 15.096
_cell_length_b 16.337
_cell_length_c 16.337
_cell_angle_alpha 119.849
_cell_angle_beta 90.001
_cell_angle_gamma 90.001
_space_group_name_H-M_alt 'P 1'
_space_group_name_Hall 'P 1'
loop_
    _symmetry_equiv_pos_as_xyz
    x,y,z
loop_
    _atom_site_label
    _atom_site_type_symbol
    _atom_site_fract_x
    _atom_site_fract_y
    _atom_site_fract_z
    _atom_site_occupancy
    Y0      Y    0.56716   0.66703   0.33319   1.000
    Y1      Y    0.31724   0.33303   0.66686   1.000
    Y2      Y    0.81722   0.33303   0.66686   1.000
    Y3      Y    0.31724   0.66687   0.33303   1.000
    Y4      Y    0.81722   0.66687   0.33303   1.000
    Y5      Y    0.06717   0.33319   0.66703   1.000
    Y6      Y    0.56716   0.33319   0.66703   1.000
    Y7      Y    0.06717   0.66703   0.33319   1.000
