# CIF file generated by openbabel 2.4.90, see http://openbabel.sf.net
data_I
_chemical_name_common ''
_cell_length_a 15.096
_cell_length_b 16.337
_cell_length_c 16.337
_cell_angle_alpha 119.849
_cell_angle_beta 90.001
_cell_angle_gamma 90.001
_space_group_name_H-M_alt 'P 1'
_space_group_name_Hall 'P 1'
loop_
    _symmetry_equiv_pos_as_xyz
    x,y,z
loop_
    _atom_site_label
    _atom_site_type_symbol
    _atom_site_fract_x
    _atom_site_fract_y
    _atom_site_fract_z
    _atom_site_occupancy
    N0      N    0.67908   0.58988   0.58987   1.000
    N1      N    0.17896   0.41018   0.00036   1.000
    N2      N    0.67894   0.41018   0.00036   1.000
    N3      N    0.17896   0.00037   0.41018   1.000
    N4      N    0.67894   0.00037   0.41017   1.000
    N5      N    0.43598   0.41789   0.40958   1.000
    N6      N    0.93597   0.41789   0.40958   1.000
    N7      N    0.42190   0.59398   0.99961   1.000
    N8      N    0.92189   0.59398   0.99967   1.000
    N9      N    0.42935   0.99971   0.58990   1.000
    N10     N    0.92934   0.99971   0.58986   1.000
    N11     N    0.17910   0.58988   0.58988   1.000
    Zr12    Zr   0.81722   0.33303   0.66686   1.000
    O13     O    0.85970   0.23993   0.65196   1.000
    O14     O    0.86137   0.34996   0.58847   1.000
    O15     O    0.85783   0.41234   0.75980   1.000
    Zr16    Zr   0.06717   0.33319   0.66703   1.000
    O17     O    0.10956   0.41146   0.65205   1.000
    O18     O    0.10952   0.24024   0.58872   1.000
    O19     O    0.10950   0.34808   0.76014   1.000
    Zr20    Zr   0.81722   0.66687   0.33303   1.000
    O21     O    0.85970   0.75982   0.41131   1.000
    O22     O    0.86137   0.59056   0.34788   1.000
    O23     O    0.85783   0.65299   0.23992   1.000
    Zr24    Zr   0.06717   0.66703   0.33319   1.000
    O25     O    0.10949   0.76015   0.34808   1.000
    O26     O    0.10956   0.65206   0.41145   1.000
    O27     O    0.10951   0.58873   0.24024   1.000
    Zr28    Zr   0.56716   0.66703   0.33319   1.000
    O29     O    0.60954   0.65206   0.41145   1.000
    O30     O    0.60950   0.58873   0.24024   1.000
    O31     O    0.60948   0.76015   0.34808   1.000
    Zr32    Zr   0.31724   0.66687   0.33303   1.000
    O33     O    0.35971   0.75982   0.41132   1.000
    O34     O    0.36138   0.59056   0.34788   1.000
    O35     O    0.35785   0.65299   0.23990   1.000
    Zr36    Zr   0.31724   0.33303   0.66686   1.000
    O37     O    0.35971   0.23993   0.65196   1.000
    O38     O    0.35785   0.41234   0.75978   1.000
    O39     O    0.36138   0.34996   0.58847   1.000
    Zr40    Zr   0.56716   0.33319   0.66703   1.000
    O41     O    0.60948   0.34808   0.76014   1.000
    O42     O    0.60954   0.41146   0.65205   1.000
    O43     O    0.60950   0.24024   0.58872   1.000
    O44     O    0.27301   0.64650   0.41102   1.000
    O45     O    0.27301   0.41102   0.64649   1.000
    O46     O    0.77299   0.41102   0.64649   1.000
    O47     O    0.77294   0.35342   0.76512   1.000
    O48     O    0.77295   0.23502   0.58894   1.000
    O49     O    0.27296   0.76513   0.35342   1.000
    O50     O    0.27297   0.23502   0.58894   1.000
    O51     O    0.77299   0.64650   0.41101   1.000
    O52     O    0.02309   0.23492   0.64664   1.000
    O53     O    0.02476   0.35549   0.58888   1.000
    O54     O    0.02122   0.41215   0.76504   1.000
    O55     O    0.27297   0.58895   0.23502   1.000
    O56     O    0.02309   0.76505   0.41112   1.000
    O57     O    0.02476   0.59096   0.35341   1.000
    O58     O    0.02122   0.64767   0.23491   1.000
    O59     O    0.27295   0.35342   0.76512   1.000
    O60     O    0.52122   0.64767   0.23489   1.000
    O61     O    0.52308   0.76505   0.41113   1.000
    O62     O    0.52475   0.59096   0.35341   1.000
    O63     O    0.77295   0.58895   0.23502   1.000
    O64     O    0.77294   0.76513   0.35342   1.000
    O65     O    0.52122   0.41215   0.76497   1.000
    O66     O    0.52308   0.23492   0.64664   1.000
    O67     O    0.52475   0.35549   0.58888   1.000
loop_
    _geom_bond_atom_site_label_1
    _geom_bond_atom_site_label_2
    _geom_bond_distance
    _geom_bond_site_symmetry_2
    _ccdc_geom_bond_type
    Zr12   O13       1.55417      .   S
    N10    O13       3.68414  1_565   S
    Zr12   O14       1.58525      .   S
    N6     O14       3.77765      .   S
    Zr12   O15       1.54975      .   S
    N8     O15       3.67716      .   S
    Zr16   O17       1.55421      .   S
    N11    O17       3.68485      .   S
    Zr16   O18       1.55477      .   S
    N3     O18       3.68598      .   S
    Zr16   O19       1.55338      .   S
    N1     O19       3.68320  1_554   S
    Zr20   O21       1.55541      .   S
    N10    O21       3.68693      .   S
    Zr20   O22       1.53565      .   S
    N6     O22       3.61559      .   S
    Zr20   O23       1.54856      .   S
    N8     O23       3.67456  1_556   S
    Zr24   O25       1.55343      .   S
    N3     O25       3.68328  1_545   S
    Zr24   O26       1.55419      .   S
    N11    O26       3.68479      .   S
    Zr24   O27       1.55479      .   S
    N1     O27       3.68605      .   S
    Zr28   O29       1.55416      .   S
    N0     O29       3.68472      .   S
    Zr28   O30       1.55479      .   S
    N2     O30       3.68605      .   S
    Zr28   O31       1.55343      .   S
    N4     O31       3.68330  1_545   S
    Zr32   O33       1.55545      .   S
    N9     O33       3.68702      .   S
    Zr32   O34       1.53564      .   S
    N5     O34       3.61557      .   S
    Zr32   O35       1.54880      .   S
    N7     O35       3.67529  1_556   S
    Zr36   O37       1.55420      .   S
    N9     O37       3.68422  1_565   S
    Zr36   O38       1.54960      .   S
    N7     O38       3.67664      .   S
    Zr36   O39       1.58524      .   S
    N5     O39       3.77761      .   S
    Zr40   O41       1.55338      .   S
    N2     O41       3.68320  1_554   S
    Zr40   O42       1.55422      .   S
    N0     O42       3.68489      .   S
    Zr40   O43       1.55477      .   S
    N4     O43       3.68600      .   S
    N11    O44       3.75415      .   S
    Zr32   O44       1.61307      .   S
    N11    O45       3.75417      .   S
    Zr36   O45       1.61308      .   S
    Zr12   O46       1.61310      .   S
    N0     O46       3.75422      .   S
    Zr12   O47       1.61327      .   S
    N2     O47       3.75432  1_554   S
    Zr12   O48       1.61303      .   S
    N4     O48       3.75429      .   S
    N3     O49       3.75434  1_545   S
    Zr32   O49       1.61329      .   S
    N3     O50       3.75426      .   S
    Zr36   O50       1.61302      .   S
    N0     O51       3.75413      .   S
    Zr20   O51       1.61303      .   S
    Zr16   O52       1.61207      .   S
    N10    O52       3.75253  1_665   S
    Zr16   O53       1.62347      .   S
    N6     O53       3.79322  1_655   S
    Zr16   O54       1.62880      .   S
    N8     O54       3.79893  1_655   S
    Zr32   O55       1.61305      .   S
    N1     O55       3.75435      .   S
    Zr24   O56       1.61206      .   S
    N10    O56       3.75274  1_655   S
    Zr24   O57       1.57234      .   S
    N6     O57       3.63531  1_655   S
    Zr24   O58       1.62899      .   S
    N8     O58       3.79887  1_656   S
    Zr36   O59       1.61327      .   S
    N1     O59       3.75431  1_554   S
    Zr28   O60       1.62917      .   S
    N7     O60       3.79947  1_556   S
    Zr28   O61       1.61205      .   S
    N9     O61       3.75276      .   S
    Zr28   O62       1.57229      .   S
    N5     O62       3.63524      .   S
    Zr20   O63       1.61306      .   S
    N2     O63       3.75435      .   S
    Zr20   O64       1.61329      .   S
    N4     O64       3.75435  1_545   S
    N7     O65       3.79891      .   S
    Zr40   O65       1.62806      .   S
    N9     O66       3.75254  1_565   S
    Zr40   O66       1.61205      .   S
    N5     O67       3.79312      .   S
    Zr40   O67       1.62342      .   S
