# CIF file generated by openbabel 2.4.90, see http://openbabel.sf.net
data_I
_chemical_name_common ''
_cell_length_a 15.096
_cell_length_b 16.337
_cell_length_c 16.337
_cell_angle_alpha 119.849
_cell_angle_beta 90.001
_cell_angle_gamma 90.001
_space_group_name_H-M_alt 'P 1'
_space_group_name_Hall 'P 1'
loop_
    _symmetry_equiv_pos_as_xyz
    x,y,z
loop_
    _atom_site_label
    _atom_site_type_symbol
    _atom_site_fract_x
    _atom_site_fract_y
    _atom_site_fract_z
    _atom_site_occupancy
    N0      N    0.67908   0.58988   0.58987   1.000
    N1      N    0.17896   0.41018   0.00036   1.000
    N2      N    0.67894   0.41018   0.00036   1.000
    N3      N    0.17896   0.00037   0.41018   1.000
    N4      N    0.67894   0.00037   0.41017   1.000
    N5      N    0.43598   0.41789   0.40958   1.000
    N6      N    0.93597   0.41789   0.40958   1.000
    N7      N    0.42190   0.59398   0.99961   1.000
    N8      N    0.92189   0.59398   0.99967   1.000
    N9      N    0.42935   0.99971   0.58990   1.000
    N10     N    0.92934   0.99971   0.58986   1.000
    N11     N    0.17910   0.58988   0.58988   1.000
    Zr12    Zr   0.81722   0.33303   0.66686   1.000
    O13     O    0.76577   0.34798   0.76004   1.000
    O14     O    0.78011   0.35887   0.77021   1.000
    O15     O    0.76583   0.41136   0.65194   1.000
    O16     O    0.78015   0.41068   0.64103   1.000
    O17     O    0.85970   0.23993   0.65196   1.000
    O18     O    0.86137   0.34996   0.58847   1.000
    O19     O    0.78011   0.22990   0.58927   1.000
    O20     O    0.76579   0.24014   0.58862   1.000
    O21     O    0.85783   0.41234   0.75980   1.000
    Zr22    Zr   0.06717   0.33319   0.66703   1.000
    O23     O    0.03026   0.22982   0.64121   1.000
    O24     O    0.01592   0.24003   0.65206   1.000
    O25     O    0.03192   0.36092   0.58918   1.000
    O26     O    0.01759   0.35006   0.58858   1.000
    O27     O    0.10956   0.41146   0.65205   1.000
    O28     O    0.10952   0.24024   0.58872   1.000
    O29     O    0.10950   0.34808   0.76014   1.000
    O30     O    0.02839   0.41186   0.77017   1.000
    O31     O    0.01405   0.41244   0.75991   1.000
    Zr32    Zr   0.81722   0.66687   0.33303   1.000
    O33     O    0.78011   0.77022   0.35886   1.000
    O34     O    0.76577   0.76005   0.34798   1.000
    O35     O    0.78011   0.58928   0.22989   1.000
    O36     O    0.76583   0.65195   0.41135   1.000
    O37     O    0.85970   0.75982   0.41131   1.000
    O38     O    0.86137   0.59056   0.34788   1.000
    O39     O    0.76579   0.58863   0.24014   1.000
    O40     O    0.85783   0.65299   0.23992   1.000
    O41     O    0.78015   0.64104   0.41067   1.000
    Zr42    Zr   0.06717   0.66703   0.33319   1.000
    O43     O    0.01405   0.65309   0.24002   1.000
    O44     O    0.10949   0.76015   0.34808   1.000
    O45     O    0.03026   0.77019   0.41083   1.000
    O46     O    0.01592   0.75992   0.41141   1.000
    O47     O    0.03192   0.59126   0.35884   1.000
    O48     O    0.01759   0.59066   0.34798   1.000
    O49     O    0.10956   0.65206   0.41145   1.000
    O50     O    0.02840   0.64224   0.22980   1.000
    O51     O    0.10951   0.58873   0.24024   1.000
    Zr52    Zr   0.56716   0.66703   0.33319   1.000
    O53     O    0.53025   0.77019   0.41084   1.000
    O54     O    0.51591   0.75992   0.41142   1.000
    O55     O    0.51405   0.65309   0.24000   1.000
    O56     O    0.60954   0.65206   0.41145   1.000
    O57     O    0.53191   0.59126   0.35884   1.000
    O58     O    0.60950   0.58873   0.24024   1.000
    O59     O    0.60948   0.76015   0.34808   1.000
    O60     O    0.51758   0.59066   0.34798   1.000
    O61     O    0.52839   0.64224   0.22978   1.000
    Zr62    Zr   0.31724   0.66687   0.33303   1.000
    O63     O    0.35971   0.75982   0.41132   1.000
    O64     O    0.28012   0.77022   0.35886   1.000
    O65     O    0.26579   0.76005   0.34798   1.000
    O66     O    0.36138   0.59056   0.34788   1.000
    O67     O    0.28017   0.64104   0.41068   1.000
    O68     O    0.26585   0.65195   0.41135   1.000
    O69     O    0.35785   0.65299   0.23990   1.000
    O70     O    0.26581   0.58863   0.24014   1.000
    O71     O    0.28013   0.58928   0.22989   1.000
    Zr72    Zr   0.31724   0.33303   0.66686   1.000
    O73     O    0.28013   0.22990   0.58927   1.000
    O74     O    0.26579   0.34798   0.76004   1.000
    O75     O    0.26585   0.41136   0.65195   1.000
    O76     O    0.28016   0.41068   0.64103   1.000
    O77     O    0.35971   0.23993   0.65196   1.000
    O78     O    0.26581   0.24014   0.58862   1.000
    O79     O    0.35785   0.41234   0.75978   1.000
    O80     O    0.28012   0.35887   0.77021   1.000
    O81     O    0.36138   0.34996   0.58847   1.000
    Zr82    Zr   0.56716   0.33319   0.66703   1.000
    O83     O    0.60948   0.34808   0.76014   1.000
    O84     O    0.60954   0.41146   0.65205   1.000
    O85     O    0.53191   0.36092   0.58918   1.000
    O86     O    0.51758   0.35006   0.58858   1.000
    O87     O    0.52838   0.41186   0.77005   1.000
    O88     O    0.53025   0.22982   0.64122   1.000
    O89     O    0.51591   0.24003   0.65207   1.000
    O90     O    0.60950   0.24024   0.58872   1.000
    O91     O    0.51405   0.41244   0.75989   1.000
loop_
    _geom_bond_atom_site_label_1
    _geom_bond_atom_site_label_2
    _geom_bond_distance
    _geom_bond_site_symmetry_2
    _ccdc_geom_bond_type
    Zr12   O13       1.61558      .   S
    N2     O13       3.76746  1_554   S
    Zr12   O14       1.62282      .   S
    N2     O14       3.74625  1_554   S
    Zr12   O15       1.61525      .   S
    N0     O15       3.76748      .   S
    Zr12   O16       1.62280      .   S
    N0     O16       3.74604      .   S
    Zr12   O17       1.55417      .   S
    N10    O17       3.68414  1_565   S
    Zr12   O18       1.58525      .   S
    N6     O18       3.77765      .   S
    Zr12   O19       1.62278      .   S
    N4     O19       3.74607      .   S
    Zr12   O20       1.61512      .   S
    N4     O20       3.76757      .   S
    Zr12   O21       1.54975      .   S
    N8     O21       3.67716      .   S
    Zr22   O23       1.62212      .   S
    N10    O23       3.74406  1_665   S
    Zr22   O24       1.61387      .   S
    N10    O24       3.76608  1_665   S
    Zr22   O25       1.63689      .   S
    N6     O25       3.78043  1_655   S
    Zr22   O26       1.62180      .   S
    N6     O26       3.81100  1_655   S
    Zr22   O27       1.55421      .   S
    N11    O27       3.68485      .   S
    Zr22   O28       1.55477      .   S
    N3     O28       3.68598      .   S
    Zr22   O29       1.55338      .   S
    N1     O29       3.68320  1_554   S
    Zr22   O30       1.63652      .   S
    N8     O30       3.79352  1_655   S
    Zr22   O31       1.63283      .   S
    N8     O31       3.80937  1_655   S
    Zr32   O33       1.62284      .   S
    N4     O33       3.74629  1_545   S
    Zr32   O34       1.61560      .   S
    N4     O34       3.76749  1_545   S
    Zr32   O35       1.62282      .   S
    N2     O35       3.74614      .   S
    Zr32   O36       1.61521      .   S
    N0     O36       3.76736      .   S
    Zr32   O37       1.55541      .   S
    N10    O37       3.68693      .   S
    Zr32   O38       1.53565      .   S
    N6     O38       3.61559      .   S
    Zr32   O39       1.61515      .   S
    N2     O39       3.76764      .   S
    Zr32   O40       1.54856      .   S
    N8     O40       3.67456  1_556   S
    Zr32   O41       1.62270      .   S
    N0     O41       3.74598      .   S
    Zr42   O43       1.63305      .   S
    N8     O43       3.80932  1_656   S
    Zr42   O44       1.55343      .   S
    N3     O44       3.68328  1_545   S
    Zr42   O45       1.62222      .   S
    N10    O45       3.74419  1_655   S
    Zr42   O46       1.61375      .   S
    N10    O46       3.76636  1_655   S
    Zr42   O47       1.58351      .   S
    N6     O47       3.62548  1_655   S
    Zr42   O48       1.57331      .   S
    N6     O48       3.65036  1_655   S
    Zr42   O49       1.55419      .   S
    N11    O49       3.68479      .   S
    Zr42   O50       1.63668      .   S
    N8     O50       3.79346  1_656   S
    Zr42   O51       1.55479      .   S
    N1     O51       3.68605      .   S
    Zr52   O53       1.62223      .   S
    N9     O53       3.74420      .   S
    Zr52   O54       1.61373      .   S
    N9     O54       3.76639      .   S
    Zr52   O55       1.63319      .   S
    N7     O55       3.80994  1_556   S
    Zr52   O56       1.55416      .   S
    N0     O56       3.68472      .   S
    Zr52   O57       1.58349      .   S
    N5     O57       3.62539      .   S
    Zr52   O58       1.55479      .   S
    N2     O58       3.68605      .   S
    Zr52   O59       1.55343      .   S
    N4     O59       3.68330  1_545   S
    Zr52   O60       1.57325      .   S
    N5     O60       3.65031      .   S
    Zr52   O61       1.63688      .   S
    N7     O61       3.79403  1_556   S
    Zr62   O63       1.55545      .   S
    N9     O63       3.68702      .   S
    Zr62   O64       1.62284      .   S
    N3     O64       3.74628  1_545   S
    Zr62   O65       1.61559      .   S
    N3     O65       3.76748  1_545   S
    Zr62   O66       1.53564      .   S
    N5     O66       3.61557      .   S
    Zr62   O67       1.62277      .   S
    N11    O67       3.74597      .   S
    Zr62   O68       1.61523      .   S
    N11    O68       3.76741      .   S
    Zr62   O69       1.54880      .   S
    N7     O69       3.67529  1_556   S
    Zr62   O70       1.61514      .   S
    N1     O70       3.76764      .   S
    Zr62   O71       1.62282      .   S
    N1     O71       3.74613      .   S
    Zr72   O73       1.62277      .   S
    N3     O73       3.74605      .   S
    Zr72   O74       1.61557      .   S
    N1     O74       3.76745  1_554   S
    Zr72   O75       1.61523      .   S
    N11    O75       3.76743      .   S
    Zr72   O76       1.62278      .   S
    N11    O76       3.74599      .   S
    Zr72   O77       1.55420      .   S
    N9     O77       3.68422  1_565   S
    Zr72   O78       1.61511      .   S
    N3     O78       3.76755      .   S
    Zr72   O79       1.54960      .   S
    N7     O79       3.67664      .   S
    Zr72   O80       1.62281      .   S
    N1     O80       3.74625  1_554   S
    Zr72   O81       1.58524      .   S
    N5     O81       3.77761      .   S
    Zr82   O83       1.55338      .   S
    N2     O83       3.68320  1_554   S
    Zr82   O84       1.55422      .   S
    N0     O84       3.68489      .   S
    Zr82   O85       1.63686      .   S
    N5     O85       3.78032      .   S
    Zr82   O86       1.62173      .   S
    N5     O86       3.81092      .   S
    Zr82   O87       1.63516      .   S
    N7     O87       3.79402      .   S
    Zr82   O88       1.62212      .   S
    N9     O88       3.74406  1_565   S
    Zr82   O89       1.61385      .   S
    N9     O89       3.76610  1_565   S
    Zr82   O90       1.55477      .   S
    N4     O90       3.68600      .   S
    Zr82   O91       1.63262      .   S
    N7     O91       3.80879      .   S
