# CIF file generated by openbabel 2.4.90, see http://openbabel.sf.net
data_I
_chemical_name_common ''
_cell_length_a 18.067
_cell_length_b 20.611
_cell_length_c 18.888
_cell_angle_alpha 89.978
_cell_angle_beta 89.993
_cell_angle_gamma 90.027
_space_group_name_H-M_alt 'P 1'
_space_group_name_Hall 'P 1'
loop_
    _symmetry_equiv_pos_as_xyz
    x,y,z
loop_
    _atom_site_label
    _atom_site_type_symbol
    _atom_site_fract_x
    _atom_site_fract_y
    _atom_site_fract_z
    _atom_site_occupancy
    H0      H    0.40988   0.47233   0.53340   1.000
    H1      H    0.40988   0.97234   0.53349   1.000
    H2      H    0.90988   0.47233   0.53349   1.000
    H3      H    0.90989   0.97234   0.53340   1.000
    H4      H    0.11831   0.19026   0.39223   1.000
    H5      H    0.11831   0.69027   0.39223   1.000
    H6      H    0.61832   0.19026   0.39223   1.000
    H7      H    0.61832   0.69027   0.39223   1.000
    H8      H    0.41734   0.15262   0.26264   1.000
    H9      H    0.41734   0.65263   0.26264   1.000
    H10     H    0.91735   0.15262   0.26264   1.000
    H11     H    0.91735   0.65263   0.26264   1.000
    H12     H    0.35877   0.09832   0.30900   1.000
    H13     H    0.35877   0.59832   0.30900   1.000
    H14     H    0.85878   0.09832   0.30900   1.000
    H15     H    0.85878   0.59832   0.30900   1.000
    H16     H    0.48765   0.34159   0.70758   1.000
    H17     H    0.48765   0.84160   0.70758   1.000
    H18     H    0.98766   0.34159   0.70758   1.000
    H19     H    0.98766   0.84160   0.70758   1.000
    H20     H    0.42532   0.26323   0.78953   1.000
    H21     H    0.42532   0.76324   0.78953   1.000
    H22     H    0.92533   0.26323   0.78953   1.000
    H23     H    0.92533   0.76324   0.78953   1.000
    H24     H    0.29986   0.40978   0.88048   1.000
    H25     H    0.29986   0.90979   0.88048   1.000
    H26     H    0.79987   0.40978   0.88048   1.000
    H27     H    0.79987   0.90979   0.88040   1.000
    H28     H    0.35644   0.49377   0.79987   1.000
    H29     H    0.35644   0.99377   0.79987   1.000
    H30     H    0.85645   0.49377   0.79987   1.000
    H31     H    0.85645   0.99378   0.79988   1.000
    H32     H    0.15989   0.02764   0.46646   1.000
    H33     H    0.15990   0.52764   0.46646   1.000
    H34     H    0.65990   0.02764   0.46646   1.000
    H35     H    0.65990   0.52764   0.46646   1.000
    H36     H    0.36823   0.30981   0.60768   1.000
    H37     H    0.36823   0.80982   0.60768   1.000
    H38     H    0.86824   0.30981   0.60768   1.000
    H39     H    0.86824   0.80982   0.60768   1.000
    H40     H    0.16730   0.34737   0.73734   1.000
    H41     H    0.16730   0.84738   0.73734   1.000
    H42     H    0.66731   0.34737   0.73734   1.000
    H43     H    0.66731   0.84738   0.73734   1.000
    H44     H    0.10875   0.40166   0.69100   1.000
    H45     H    0.10875   0.90167   0.69100   1.000
    H46     H    0.60876   0.40166   0.69100   1.000
    H47     H    0.60876   0.90167   0.69100   1.000
    H48     H    0.23758   0.15847   0.29246   1.000
    H49     H    0.23758   0.65847   0.29246   1.000
    H50     H    0.73759   0.15847   0.29246   1.000
    H51     H    0.73759   0.65847   0.29246   1.000
    H52     H    0.17525   0.23682   0.21050   1.000
    H53     H    0.17525   0.73683   0.21050   1.000
    H54     H    0.67526   0.23682   0.21050   1.000
    H55     H    0.67526   0.73683   0.21059   1.000
    H56     H    0.04985   0.09020   0.11951   1.000
    H57     H    0.04985   0.59021   0.11950   1.000
    H58     H    0.54986   0.09020   0.11950   1.000
    H59     H    0.54986   0.59021   0.11952   1.000
    H60     H    0.10641   0.00623   0.20007   1.000
    H61     H    0.10641   0.50624   0.20007   1.000
    H62     H    0.60641   0.00623   0.20007   1.000
    H63     H    0.60642   0.50624   0.20007   1.000
    H64     H    0.40959   0.27752   0.03367   1.000
    H65     H    0.40959   0.77753   0.03367   1.000
    H66     H    0.90960   0.27752   0.03360   1.000
    H67     H    0.90960   0.77753   0.03367   1.000
    H68     H    0.11850   0.06016   0.89249   1.000
    H69     H    0.11850   0.56017   0.89249   1.000
    H70     H    0.61851   0.06017   0.89249   1.000
    H71     H    0.61851   0.56017   0.89249   1.000
    H72     H    0.41745   0.09733   0.76285   1.000
    H73     H    0.41745   0.59733   0.76285   1.000
    H74     H    0.91746   0.09733   0.76285   1.000
    H75     H    0.91746   0.59733   0.76285   1.000
    H76     H    0.35878   0.15153   0.80915   1.000
    H77     H    0.35878   0.65154   0.80915   1.000
    H78     H    0.85879   0.15153   0.80915   1.000
    H79     H    0.85879   0.65154   0.80915   1.000
    H80     H    0.48778   0.40847   0.20768   1.000
    H81     H    0.48778   0.90848   0.20768   1.000
    H82     H    0.98779   0.40847   0.20768   1.000
    H83     H    0.98779   0.90848   0.20768   1.000
    C84     C    0.71021   0.88150   0.64454   1.000
    C85     C    0.20564   0.42157   0.58373   1.000
    C86     C    0.20564   0.92158   0.58373   1.000
    C87     C    0.70565   0.42157   0.58373   1.000
    H88     H    0.42550   0.48677   0.28959   1.000
    H89     H    0.42550   0.98678   0.28959   1.000
    H90     H    0.92550   0.48677   0.28959   1.000
    H91     H    0.92551   0.98678   0.28959   1.000
    H92     H    0.29992   0.34013   0.38057   1.000
    H93     H    0.29993   0.84014   0.38057   1.000
    H94     H    0.79993   0.34013   0.38056   1.000
    H95     H    0.79993   0.84014   0.38056   1.000
    H96     H    0.35645   0.25621   0.29997   1.000
    H97     H    0.35645   0.75622   0.29997   1.000
    H98     H    0.85646   0.25621   0.29997   1.000
    H99     H    0.85646   0.75622   0.29997   1.000
    H100    H    0.15959   0.22245   0.96635   1.000
    H101    H    0.15959   0.72245   0.96635   1.000
    H102    H    0.65960   0.22244   0.96630   1.000
    H103    H    0.65960   0.72245   0.96635   1.000
    H104    H    0.36862   0.43991   0.10744   1.000
    H105    H    0.36863   0.93991   0.10744   1.000
    H106    H    0.86863   0.43991   0.10744   1.000
    H107    H    0.86863   0.93992   0.10744   1.000
    H108    H    0.16748   0.40272   0.23710   1.000
    H109    H    0.16748   0.90273   0.23710   1.000
    H110    H    0.66748   0.40272   0.23710   1.000
    H111    H    0.66749   0.90273   0.23710   1.000
    H112    H    0.10881   0.34848   0.19079   1.000
    H113    H    0.10881   0.84849   0.19079   1.000
    H114    H    0.60881   0.34848   0.19079   1.000
    H115    H    0.60882   0.84849   0.19079   1.000
    C116    C    0.44634   0.39179   0.24530   1.000
    C117    C    0.44634   0.89180   0.24530   1.000
    C118    C    0.94635   0.39179   0.24500   1.000
    C119    C    0.94635   0.89180   0.24530   1.000
    C120    C    0.42663   0.32625   0.24784   1.000
    H121    H    0.23764   0.09156   0.79236   1.000
    H122    H    0.23765   0.59156   0.79236   1.000
    H123    H    0.73766   0.09156   0.79236   1.000
    H124    H    0.73766   0.59156   0.79236   1.000
    H125    H    0.17538   0.01323   0.71041   1.000
    H126    H    0.17538   0.51324   0.71041   1.000
    H127    H    0.67539   0.01323   0.71041   1.000
    H128    H    0.67539   0.51324   0.71041   1.000
    H129    H    0.04998   0.15983   0.61937   1.000
    H130    H    0.04998   0.65983   0.61937   1.000
    H131    H    0.54998   0.15983   0.61937   1.000
    H132    H    0.54999   0.65983   0.61937   1.000
    H133    H    0.10649   0.24377   0.69999   1.000
    H134    H    0.10649   0.74378   0.69999   1.000
    H135    H    0.60650   0.24377   0.69999   1.000
    H136    H    0.60650   0.74378   0.69999   1.000
    C137    C    0.43523   0.01045   0.50198   1.000
    C138    C    0.43524   0.51046   0.50198   1.000
    C139    C    0.93524   0.01045   0.50198   1.000
    C140    C    0.93525   0.51046   0.50198   1.000
    C141    C    0.07166   0.15731   0.40038   1.000
    C142    C    0.07166   0.65732   0.40038   1.000
    C143    C    0.57167   0.15731   0.40038   1.000
    C144    C    0.57167   0.65732   0.40038   1.000
    C145    C    0.46025   0.11852   0.35542   1.000
    C146    C    0.46025   0.61853   0.35542   1.000
    C147    C    0.96026   0.11852   0.35542   1.000
    C148    C    0.96026   0.61853   0.35542   1.000
    C149    C    0.45568   0.07843   0.41623   1.000
    C150    C    0.45568   0.57844   0.41623   1.000
    C151    C    0.95569   0.07843   0.41623   1.000
    C152    C    0.95569   0.57844   0.41623   1.000
    C153    C    0.01393   0.08276   0.46540   1.000
    C154    C    0.01393   0.58277   0.46543   1.000
    C155    C    0.51394   0.08276   0.46540   1.000
    C156    C    0.51394   0.58277   0.46540   1.000
    C157    C    0.44624   0.35824   0.74522   1.000
    C158    C    0.44624   0.85825   0.74520   1.000
    C159    C    0.94625   0.35824   0.74520   1.000
    C160    C    0.94625   0.85825   0.74522   1.000
    C161    C    0.42659   0.42378   0.74777   1.000
    C162    C    0.42659   0.92378   0.74777   1.000
    C163    C    0.92660   0.42378   0.74777   1.000
    C164    C    0.92660   0.92378   0.74777   1.000
    C165    C    0.41181   0.31477   0.79051   1.000
    C166    C    0.41182   0.81478   0.79051   1.000
    C167    C    0.91182   0.31477   0.79051   1.000
    C168    C    0.91182   0.81478   0.79051   1.000
    C169    C    0.34114   0.39691   0.84087   1.000
    C170    C    0.34114   0.89692   0.84087   1.000
    C171    C    0.84115   0.39691   0.84087   1.000
    C172    C    0.84116   0.89692   0.84087   1.000
    C173    C    0.37272   0.44303   0.79654   1.000
    C174    C    0.37272   0.94303   0.79654   1.000
    C175    C    0.87273   0.44303   0.79654   1.000
    C176    C    0.87274   0.94304   0.79654   1.000
    C177    C    0.18523   0.48952   0.49797   1.000
    C178    C    0.18523   0.98953   0.49797   1.000
    C179    C    0.68524   0.48952   0.49797   1.000
    C180    C    0.68524   0.98953   0.49797   1.000
    C181    C    0.32159   0.34273   0.59954   1.000
    C182    C    0.32159   0.84274   0.59954   1.000
    C183    C    0.82160   0.34273   0.59954   1.000
    C184    C    0.82160   0.84274   0.59954   1.000
    C185    C    0.21020   0.38149   0.64454   1.000
    C186    C    0.21020   0.88150   0.64454   1.000
    C187    C    0.71021   0.38149   0.64454   1.000
    N188    N    0.32370   0.87160   0.03979   1.000
    N189    N    0.82371   0.37159   0.03979   1.000
    N190    N    0.82371   0.87160   0.03979   1.000
    N191    N    0.15569   0.28186   0.05917   1.000
    N192    N    0.15569   0.78187   0.05917   1.000
    N193    N    0.65570   0.28186   0.05917   1.000
    N194    N    0.65570   0.78187   0.05917   1.000
    N195    N    0.27025   0.40784   0.15057   1.000
    C196    C    0.70565   0.92158   0.58373   1.000
    C197    C    0.26387   0.41724   0.53449   1.000
    C198    C    0.26388   0.91725   0.53449   1.000
    C199    C    0.76388   0.41724   0.53449   1.000
    C200    C    0.76389   0.91725   0.53449   1.000
    C201    C    0.19618   0.14180   0.25482   1.000
    C202    C    0.19618   0.64181   0.25482   1.000
    C203    C    0.69619   0.14180   0.25482   1.000
    C204    C    0.69619   0.64181   0.25482   1.000
    C205    C    0.17654   0.07625   0.25223   1.000
    C206    C    0.17655   0.57625   0.25222   1.000
    C207    C    0.67655   0.07625   0.25220   1.000
    C208    C    0.67656   0.57625   0.25222   1.000
    C209    C    0.16175   0.18527   0.20956   1.000
    C210    C    0.16175   0.68527   0.20956   1.000
    C211    C    0.66176   0.18527   0.20956   1.000
    C212    C    0.66176   0.68527   0.20956   1.000
    C213    C    0.09112   0.10309   0.15914   1.000
    C214    C    0.09112   0.60310   0.15914   1.000
    C215    C    0.59112   0.10309   0.15914   1.000
    C216    C    0.59112   0.60310   0.15914   1.000
    C217    C    0.12269   0.05698   0.20344   1.000
    C218    C    0.12269   0.55699   0.20344   1.000
    C219    C    0.62270   0.05698   0.20344   1.000
    C220    C    0.62270   0.55699   0.20344   1.000
    C221    C    0.43501   0.23945   0.00000   1.000
    C222    C    0.43501   0.73946   0.00000   1.000
    C223    C    0.93502   0.23945   0.00000   1.000
    C224    C    0.93502   0.73946   0.00000   1.000
    C225    C    0.07174   0.09296   0.90060   1.000
    C226    C    0.07175   0.59297   0.90063   1.000
    C227    C    0.57175   0.09296   0.90063   1.000
    C228    C    0.57176   0.59297   0.90063   1.000
    C229    C    0.46027   0.13151   0.85563   1.000
    C230    C    0.46027   0.63151   0.85563   1.000
    C231    C    0.96028   0.13150   0.85563   1.000
    C232    C    0.96028   0.63151   0.85563   1.000
    C233    C    0.45560   0.17158   0.91641   1.000
    C234    C    0.45560   0.67158   0.91641   1.000
    C235    C    0.95561   0.17158   0.91641   1.000
    C236    C    0.95561   0.67158   0.91641   1.000
    C237    C    0.01380   0.16731   0.96566   1.000
    C238    C    0.01381   0.66732   0.96566   1.000
    C239    C    0.51381   0.16731   0.96566   1.000
    C240    C    0.51382   0.66732   0.96566   1.000
    C241    C    0.42663   0.82626   0.24784   1.000
    C242    C    0.92665   0.32625   0.24785   1.000
    C243    C    0.92665   0.82626   0.24784   1.000
    C244    C    0.41194   0.43522   0.29058   1.000
    C245    C    0.41194   0.93523   0.29058   1.000
    C246    C    0.91195   0.43523   0.29058   1.000
    C247    C    0.91195   0.93523   0.29058   1.000
    C248    C    0.34121   0.35304   0.34095   1.000
    C249    C    0.34121   0.85305   0.34095   1.000
    C250    C    0.84122   0.35305   0.34090   1.000
    C251    C    0.84122   0.85305   0.34090   1.000
    C252    C    0.37276   0.30696   0.29660   1.000
    C253    C    0.37276   0.80697   0.29663   1.000
    C254    C    0.87276   0.30696   0.29662   1.000
    C255    C    0.87277   0.80697   0.29662   1.000
    C256    C    0.18503   0.26053   0.99785   1.000
    C257    C    0.18503   0.76054   0.99785   1.000
    C258    C    0.68504   0.26053   0.99785   1.000
    C259    C    0.68504   0.76054   0.99785   1.000
    C260    C    0.32185   0.40709   0.09931   1.000
    C261    C    0.32185   0.90710   0.09931   1.000
    C262    C    0.82186   0.40709   0.09931   1.000
    C263    C    0.82186   0.90710   0.09931   1.000
    C264    C    0.21032   0.36853   0.14433   1.000
    C265    C    0.21033   0.86854   0.14433   1.000
    C266    C    0.71033   0.36853   0.14433   1.000
    C267    C    0.71034   0.86854   0.14433   1.000
    C268    C    0.20564   0.32844   0.08356   1.000
    C269    C    0.20565   0.82845   0.08356   1.000
    C270    C    0.70565   0.32844   0.08356   1.000
    C271    C    0.70565   0.82845   0.08356   1.000
    C272    C    0.26388   0.33271   0.03432   1.000
    C273    C    0.26388   0.83271   0.03432   1.000
    C274    C    0.76389   0.33271   0.03432   1.000
    C275    C    0.76389   0.83271   0.03432   1.000
    C276    C    0.19626   0.10822   0.75471   1.000
    C277    C    0.19626   0.60822   0.75471   1.000
    C278    C    0.69626   0.10822   0.75471   1.000
    C279    C    0.69627   0.60823   0.75470   1.000
    C280    C    0.17660   0.17375   0.75210   1.000
    C281    C    0.17661   0.67376   0.75214   1.000
    C282    C    0.67662   0.17376   0.75214   1.000
    C283    C    0.67661   0.67376   0.75215   1.000
    C284    C    0.16186   0.06477   0.70941   1.000
    C285    C    0.16187   0.56478   0.70941   1.000
    C286    C    0.66187   0.06477   0.70941   1.000
    C287    C    0.66188   0.56478   0.70941   1.000
    C288    C    0.09123   0.14693   0.65901   1.000
    C289    C    0.09123   0.64694   0.65901   1.000
    C290    C    0.59123   0.14693   0.65901   1.000
    C291    C    0.59124   0.64694   0.65901   1.000
    C292    C    0.12278   0.19303   0.70334   1.000
    C293    C    0.12277   0.69304   0.70330   1.000
    C294    C    0.62277   0.19303   0.70335   1.000
    C295    C    0.62279   0.69304   0.70334   1.000
    N296    N    0.99989   0.03937   0.51963   1.000
    N297    N    0.99989   0.53938   0.51963   1.000
    N298    N    0.49989   0.03937   0.51963   1.000
    N299    N    0.49990   0.53938   0.51963   1.000
    N300    N    0.07364   0.12176   0.45989   1.000
    N301    N    0.07364   0.62177   0.45989   1.000
    N302    N    0.57365   0.12176   0.45989   1.000
    N303    N    0.57365   0.62177   0.45989   1.000
    N304    N    0.40582   0.03177   0.44068   1.000
    N305    N    0.40582   0.53178   0.44068   1.000
    N306    N    0.90583   0.03177   0.44068   1.000
    N307    N    0.90583   0.53178   0.44068   1.000
    N308    N    0.02005   0.15796   0.34914   1.000
    N309    N    0.02005   0.65797   0.34914   1.000
    N310    N    0.52006   0.15796   0.34914   1.000
    N311    N    0.52006   0.65797   0.34914   1.000
    N312    N    0.41003   0.11858   0.30185   1.000
    N313    N    0.41004   0.61859   0.30185   1.000
    N314    N    0.91004   0.11858   0.30185   1.000
    N315    N    0.91004   0.61859   0.30185   1.000
    N316    N    0.36027   0.33367   0.83795   1.000
    N317    N    0.36027   0.83368   0.83795   1.000
    N318    N    0.86028   0.33367   0.83795   1.000
    N319    N    0.86028   0.83368   0.83795   1.000
    N320    N    0.24985   0.46061   0.48029   1.000
    N321    N    0.24986   0.96062   0.48029   1.000
    N322    N    0.74986   0.46061   0.48029   1.000
    N323    N    0.74986   0.96062   0.48029   1.000
    N324    N    0.32357   0.37826   0.54001   1.000
    N325    N    0.32357   0.87827   0.54001   1.000
    N326    N    0.82358   0.37826   0.54001   1.000
    N327    N    0.82358   0.87827   0.54001   1.000
    N328    N    0.15581   0.46822   0.55929   1.000
    N329    N    0.15581   0.96822   0.55929   1.000
    N330    N    0.65582   0.46822   0.55929   1.000
    N331    N    0.65582   0.96822   0.55929   1.000
    N332    N    0.26999   0.34208   0.65080   1.000
    N333    N    0.26999   0.84209   0.65080   1.000
    N334    N    0.77000   0.34208   0.65080   1.000
    N335    N    0.77000   0.84208   0.65080   1.000
    N336    N    0.16000   0.38141   0.69813   1.000
    N337    N    0.16000   0.88142   0.69813   1.000
    N338    N    0.66001   0.38141   0.69813   1.000
    N339    N    0.66001   0.88142   0.69813   1.000
    N340    N    0.11023   0.16635   0.16200   1.000
    N341    N    0.11023   0.66636   0.16209   1.000
    N342    N    0.61023   0.16635   0.16200   1.000
    N343    N    0.61024   0.66636   0.16209   1.000
    N344    N    0.99967   0.21062   0.01987   1.000
    N345    N    0.99967   0.71063   0.01987   1.000
    N346    N    0.49968   0.21062   0.01987   1.000
    N347    N    0.49968   0.71063   0.01987   1.000
    N348    N    0.07360   0.12845   0.96017   1.000
    N349    N    0.07360   0.62845   0.96010   1.000
    N350    N    0.57361   0.12845   0.96010   1.000
    N351    N    0.57361   0.62845   0.96016   1.000
    N352    N    0.40567   0.21814   0.94083   1.000
    N353    N    0.40567   0.71814   0.94083   1.000
    N354    N    0.90568   0.21814   0.94083   1.000
    N355    N    0.90568   0.71814   0.94083   1.000
    N356    N    0.02016   0.09222   0.84937   1.000
    N357    N    0.02016   0.59223   0.84937   1.000
    N358    N    0.52017   0.09222   0.84937   1.000
    N359    N    0.52017   0.59223   0.84937   1.000
    N360    N    0.41005   0.13130   0.80207   1.000
    N361    N    0.41005   0.63131   0.80207   1.000
    N362    N    0.91006   0.13130   0.80207   1.000
    N363    N    0.91006   0.63131   0.80207   1.000
    N364    N    0.36036   0.41630   0.33801   1.000
    N365    N    0.36036   0.91631   0.33801   1.000
    N366    N    0.86037   0.41630   0.33800   1.000
    N367    N    0.86037   0.91631   0.33801   1.000
    N368    N    0.24972   0.28937   0.98010   1.000
    N369    N    0.24972   0.78938   0.98010   1.000
    N370    N    0.74973   0.28937   0.98013   1.000
    N371    N    0.74973   0.78938   0.98010   1.000
    N372    N    0.32370   0.37159   0.03979   1.000
    N373    N    0.27026   0.90784   0.15057   1.000
    N374    N    0.77026   0.40784   0.15057   1.000
    N375    N    0.77026   0.90784   0.15057   1.000
    N376    N    0.16008   0.36873   0.19788   1.000
    N377    N    0.16009   0.86874   0.19788   1.000
    N378    N    0.66009   0.36873   0.19788   1.000
    N379    N    0.66009   0.86874   0.19788   1.000
    N380    N    0.11034   0.08369   0.66195   1.000
    N381    N    0.11035   0.58370   0.66190   1.000
    N382    N    0.61036   0.08369   0.66194   1.000
    N383    N    0.61035   0.58370   0.66195   1.000
loop_
    _geom_bond_atom_site_label_1
    _geom_bond_atom_site_label_2
    _geom_bond_distance
    _geom_bond_site_symmetry_2
    _ccdc_geom_bond_type
    C224   N345      1.36345      .   S
    C224   H67       1.10975      .   S
    C224   N355      1.31277  1_554   S
    C223   N344      1.36345      .   S
    C223   H66       1.10900      .   S
    C223   N354      1.31277  1_554   S
    C222   N347      1.36373      .   S
    C222   H65       1.10977      .   S
    C222   N353      1.31276  1_554   S
    C221   N346      1.36373      .   S
    C221   H64       1.10976      .   S
    C221   N352      1.31276  1_554   S
    N344   C237      1.38248  1_654   S
    N345   C238      1.38247  1_654   S
    N346   C239      1.38247  1_554   S
    N347   C240      1.38245  1_554   S
    C272   N372      1.34915      .   S
    C272   C268      1.40687      .   S
    C272   N368      1.38289  1_554   S
    C273   N188      1.34915      .   S
    C273   C269      1.40687      .   S
    C273   N369      1.38289  1_554   S
    C274   N189      1.34916      .   S
    C274   C270      1.40687      .   S
    C274   N370      1.38248  1_554   S
    C275   N190      1.34916      .   S
    C275   C271      1.40687      .   S
    C275   N371      1.38289  1_554   S
    N372   C260      1.34204      .   S
    N188   C261      1.34205      .   S
    N189   C262      1.34205      .   S
    N190   C263      1.34204      .   S
    N192   C269      1.39578      .   S
    N192   C257      1.34767  1_554   S
    N193   C270      1.39580      .   S
    N193   C258      1.34767  1_554   S
    N194   C271      1.39577      .   S
    N194   C259      1.34765  1_554   S
    N191   C268      1.39578      .   S
    N191   C256      1.34767  1_554   S
    C268   C264      1.41706      .   S
    C269   C265      1.41707      .   S
    C270   C266      1.41707      .   S
    C271   C267      1.41707      .   S
    C263   H107      1.09303      .   S
    C263   N375      1.34404      .   S
    C262   H106      1.09301      .   S
    C262   N374      1.34405      .   S
    C261   H105      1.09303      .   S
    C261   N373      1.34404      .   S
    C260   H104      1.09301      .   S
    C260   N195      1.34406      .   S
    H58    C215      1.08957      .   S
    H57    C214      1.08956      .   S
    H56    C213      1.08944      .   S
    H59    C216      1.08931      .   S
    C264   N195      1.35710      .   S
    C264   N376      1.35896      .   S
    C267   N375      1.35710      .   S
    C267   N379      1.35896      .   S
    C266   N374      1.35710      .   S
    C266   N378      1.35894      .   S
    C265   N373      1.35708      .   S
    C265   N377      1.35896      .   S
    C216   N343      1.34976      .   S
    C216   C220      1.38888      .   S
    C215   N342      1.34969      .   S
    C215   C219      1.38889      .   S
    C214   N341      1.34977      .   S
    C214   C218      1.38889      .   S
    C213   N340      1.34970      .   S
    C213   C217      1.38890      .   S
    N342   C211      1.35117      .   S
    N340   C209      1.35117      .   S
    N343   C212      1.34994      .   S
    N341   C210      1.35000      .   S
    H115   N379      1.02477      .   S
    H114   N378      1.02476      .   S
    H113   N377      1.02477      .   S
    H112   N376      1.02476      .   S
    N379   H111      1.02839      .   S
    N378   H110      1.02840      .   S
    N377   H109      1.02839      .   S
    N376   H108      1.02840      .   S
    H60    C217      1.08837      .   S
    H61    C218      1.08835      .   S
    H62    C219      1.08837      .   S
    H63    C220      1.08838      .   S
    C217   C205      1.39774      .   S
    C218   C206      1.39772      .   S
    C219   C207      1.39742      .   S
    C220   C208      1.39778      .   S
    H83    C119      1.08775      .   S
    H82    C118      1.08407      .   S
    H81    C117      1.08770      .   S
    H80    C116      1.08770      .   S
    C212   H55       1.09031      .   S
    C212   C204      1.38573      .   S
    C211   H54       1.09026      .   S
    C211   C203      1.38574      .   S
    C210   H53       1.09028      .   S
    C210   C202      1.38574      .   S
    C209   H52       1.09026      .   S
    C209   C201      1.38575      .   S
    C118   C242      1.39790      .   S
    C118   C246      1.38916      .   S
    C119   C243      1.39768      .   S
    C119   C247      1.38566      .   S
    C117   C241      1.39769      .   S
    C117   C245      1.38568      .   S
    C116   C120      1.39768      .   S
    C116   C244      1.38566      .   S
    C120   C252      1.39743      .   S
    C241   C253      1.39778      .   S
    C243   C255      1.39773      .   S
    C242   C254      1.39764      .   S
    C207   C203      1.39770      .   S
    C208   C204      1.39768      .   S
    C206   C202      1.39767      .   S
    C205   C201      1.39769      .   S
    C202   H49       1.08765      .   S
    C204   H51       1.08768      .   S
    C203   H50       1.08762      .   S
    C201   H48       1.08760      .   S
    H11    N315      1.02842      .   S
    H8     N312      1.02842      .   S
    H9     N313      1.02842      .   S
    H10    N314      1.02842      .   S
    H91    C247      1.09030      .   S
    H90    C246      1.09028      .   S
    H89    C245      1.09030      .   S
    H88    C244      1.09030      .   S
    C246   N366      1.34983      .   S
    C247   N367      1.34996      .   S
    C245   N365      1.35001      .   S
    C244   N364      1.34998      .   S
    C252   H96       1.08840      .   S
    C252   C248      1.38920      .   S
    C255   H99       1.08838      .   S
    C255   C251      1.38838      .   S
    C254   H98       1.08837      .   S
    C254   C250      1.38838      .   S
    C253   H97       1.08837      .   S
    C253   C249      1.38886      .   S
    N312   H12       1.02479      .   S
    N312   C145      1.35906      .   S
    N313   H13       1.02478      .   S
    N313   C146      1.35904      .   S
    N314   H14       1.02481      .   S
    N314   C147      1.35904      .   S
    N315   H15       1.02478      .   S
    N315   C148      1.35906      .   S
    N366   C250      1.34975      .   S
    N365   C249      1.34980      .   S
    N367   C251      1.34976      .   S
    N364   C248      1.34978      .   S
    C250   H94       1.08994      .   S
    C251   H95       1.08993      .   S
    C248   H92       1.08941      .   S
    C249   H93       1.08940      .   S
    N309   C148      1.35681  1_455   S
    N309   C142      1.34409      .   S
    N310   C145      1.35707      .   S
    N310   C143      1.34409      .   S
    N311   C146      1.35708      .   S
    N311   C144      1.34409      .   S
    N308   C147      1.35681  1_455   S
    N308   C141      1.34409      .   S
    C145   C149      1.41703      .   S
    C148   C152      1.41703      .   S
    C147   C151      1.41703      .   S
    C146   C150      1.41703      .   S
    H7     C144      1.09299      .   S
    H6     C143      1.09300      .   S
    H5     C142      1.09299      .   S
    H4     C141      1.09299      .   S
    C142   N301      1.34198      .   S
    C143   N302      1.34198      .   S
    C144   N303      1.34199      .   S
    C141   N300      1.34199      .   S
    C149   N304      1.39575      .   S
    C149   C155      1.40663      .   S
    C150   N305      1.39575      .   S
    C150   C156      1.40663      .   S
    C151   N306      1.39575      .   S
    C151   C153      1.40638  1_655   S
    C152   N307      1.39574      .   S
    C152   C154      1.40676  1_655   S
    N304   C137      1.34764      .   S
    N305   C138      1.34764      .   S
    N306   C139      1.34764      .   S
    N307   C140      1.34764      .   S
    N301   C154      1.34919      .   S
    N303   C156      1.34915      .   S
    N302   C155      1.34915      .   S
    N300   C153      1.34915      .   S
    C155   N298      1.38288      .   S
    C156   N299      1.38288      .   S
    C153   N296      1.38288  1_455   S
    C154   N297      1.38246  1_455   S
    H33    C177      1.08676      .   S
    H35    C179      1.08676      .   S
    H34    C180      1.08657  1_545   S
    H32    C178      1.08658  1_545   S
    N322   C179      1.35298      .   S
    N322   C199      1.38232      .   S
    N321   C178      1.35299      .   S
    N321   C198      1.38233      .   S
    N320   C177      1.35298      .   S
    N320   C197      1.38232      .   S
    N323   C180      1.35300      .   S
    N323   C200      1.38233      .   S
    C177   N328      1.34759      .   S
    C178   N329      1.34759      .   S
    C179   N330      1.34759      .   S
    C180   N331      1.34758      .   S
    C137   N298      1.35301      .   S
    C137   H1        1.08651  1_545   S
    C138   N299      1.35301      .   S
    C138   H0        1.08582      .   S
    C139   N296      1.35273      .   S
    C139   H3        1.08557  1_545   S
    C140   N297      1.35272      .   S
    C140   H2        1.08676      .   S
    C199   N326      1.34920      .   S
    C199   C87       1.40711      .   S
    C200   N327      1.34919      .   S
    C200   C196      1.40711      .   S
    C198   N325      1.34919      .   S
    C198   C86       1.40711      .   S
    C197   N324      1.34919      .   S
    C197   C85       1.40711      .   S
    N324   C181      1.34203      .   S
    N325   C182      1.34202      .   S
    N326   C183      1.34202      .   S
    N327   C184      1.34203      .   S
    N328   C85       1.39580      .   S
    N329   C86       1.39580      .   S
    N331   C196      1.39580      .   S
    N330   C87       1.39581      .   S
    C196   C84       1.41699      .   S
    C87    C187      1.41698      .   S
    C86    C186      1.41699      .   S
    C85    C185      1.41699      .   S
    C181   H36       1.09300      .   S
    C181   N332      1.34399      .   S
    C182   H37       1.09301      .   S
    C182   N333      1.34399      .   S
    C183   H38       1.09301      .   S
    C183   N334      1.34399      .   S
    C184   H39       1.09301      .   S
    C184   N335      1.34399      .   S
    H130   C289      1.08941      .   S
    H131   C290      1.08941      .   S
    H132   C291      1.08940      .   S
    H129   C288      1.08940      .   S
    C187   N334      1.35706      .   S
    C187   N338      1.35904      .   S
    C185   N332      1.35707      .   S
    C185   N336      1.35904      .   S
    C186   N333      1.35705      .   S
    C186   N337      1.35904      .   S
    C84    N335      1.35707      .   S
    C84    N339      1.35904      .   S
    C291   N383      1.34974      .   S
    C291   C295      1.38884      .   S
    C290   N382      1.34975      .   S
    C290   C294      1.38890      .   S
    C289   N381      1.34971      .   S
    C289   C293      1.38835      .   S
    C288   N380      1.34975      .   S
    C288   C292      1.38884      .   S
    N381   C285      1.35052      .   S
    N382   C286      1.34997      .   S
    N383   C287      1.34995      .   S
    N380   C284      1.34993      .   S
    H44    N336      1.02475      .   S
    H47    N339      1.02475      .   S
    H46    N338      1.02476      .   S
    H45    N337      1.02476      .   S
    N337   H41       1.02844      .   S
    N338   H42       1.02845      .   S
    N339   H43       1.02845      .   S
    N336   H40       1.02844      .   S
    H136   C295      1.08837      .   S
    H135   C294      1.08837      .   S
    H134   C293      1.08834      .   S
    H133   C292      1.08836      .   S
    C293   C281      1.39820      .   S
    C295   C283      1.39774      .   S
    C292   C280      1.39713      .   S
    C294   C282      1.39769      .   S
    H16    C157      1.08771      .   S
    H19    C160      1.08769      .   S
    H18    C159      1.08749      .   S
    H17    C158      1.08750      .   S
    C286   H127      1.09031      .   S
    C286   C278      1.38568      .   S
    C285   H126      1.09029      .   S
    C285   C277      1.38570      .   S
    C284   H125      1.09029      .   S
    C284   C276      1.38573      .   S
    C287   H128      1.09029      .   S
    C287   C279      1.38562      .   S
    C158   C162      1.39768      .   S
    C158   C166      1.38582      .   S
    C159   C163      1.39767      .   S
    C159   C167      1.38582      .   S
    C157   C161      1.39767      .   S
    C157   C165      1.38561      .   S
    C160   C164      1.39766      .   S
    C160   C168      1.38563      .   S
    C163   C175      1.39770      .   S
    C164   C176      1.39761      .   S
    C162   C174      1.39772      .   S
    C161   C173      1.39767      .   S
    C280   C276      1.39770      .   S
    C282   C278      1.39767      .   S
    C281   C277      1.39769      .   S
    C283   C279      1.39765      .   S
    C279   H124      1.08776      .   S
    C278   H123      1.08776      .   S
    C277   H122      1.08768      .   S
    C276   H121      1.08763      .   S
    H73    N361      1.02830      .   S
    H74    N362      1.02830      .   S
    H75    N363      1.02830      .   S
    H72    N360      1.02830      .   S
    H23    C168      1.09030      .   S
    H22    C167      1.09030      .   S
    H21    C166      1.09030      .   S
    H20    C165      1.09030      .   S
    C168   N319      1.34996      .   S
    C167   N318      1.34992      .   S
    C166   N317      1.34991      .   S
    C165   N316      1.34994      .   S
    C175   H30       1.08837      .   S
    C175   C171      1.38885      .   S
    C176   H31       1.08839      .   S
    C176   C172      1.38888      .   S
    C173   H28       1.08836      .   S
    C173   C169      1.38887      .   S
    C174   H29       1.08837      .   S
    C174   C170      1.38885      .   S
    N363   H79       1.02476      .   S
    N363   C232      1.35902      .   S
    N362   H78       1.02476      .   S
    N362   C231      1.35902      .   S
    N361   H77       1.02476      .   S
    N361   C230      1.35902      .   S
    N360   H76       1.02476      .   S
    N360   C229      1.35901      .   S
    N316   C169      1.34974      .   S
    N317   C170      1.34973      .   S
    N318   C171      1.34974      .   S
    N319   C172      1.34974      .   S
    C170   H25       1.08937      .   S
    C169   H24       1.08935      .   S
    C172   H27       1.08831      .   S
    C171   H26       1.08936      .   S
    N356   C231      1.35682  1_455   S
    N356   C225      1.34361      .   S
    N357   C232      1.35682  1_455   S
    N357   C226      1.34402      .   S
    N358   C229      1.35709      .   S
    N358   C227      1.34402      .   S
    N359   C230      1.35708      .   S
    N359   C228      1.34402      .   S
    C231   C235      1.41702      .   S
    C229   C233      1.41701      .   S
    C230   C234      1.41701      .   S
    C232   C236      1.41701      .   S
    H68    C225      1.09293      .   S
    H69    C226      1.09301      .   S
    H70    C227      1.09301      .   S
    H71    C228      1.09301      .   S
    C225   N348      1.34261      .   S
    C226   N349      1.34102      .   S
    C227   N350      1.34102      .   S
    C228   N351      1.34197      .   S
    C233   N352      1.39587      .   S
    C233   C239      1.40699      .   S
    C234   N353      1.39586      .   S
    C234   C240      1.40699      .   S
    C235   N354      1.39586      .   S
    C235   C237      1.40675  1_655   S
    C236   N355      1.39586      .   S
    C236   C238      1.40675  1_655   S
    N349   C238      1.34927      .   S
    N350   C239      1.34927      .   S
    N351   C240      1.34919      .   S
    N348   C237      1.34915      .   S
    H102   C258      1.08749      .   S
    H100   C256      1.08696      .   S
    H101   C257      1.08696      .   S
    H103   C259      1.08697      .   S
    N371   C259      1.35316      .   S
    N369   C257      1.35317      .   S
    N368   C256      1.35317      .   S
    N370   C258      1.35303      .   S
