# CIF file generated by openbabel 2.4.90, see http://openbabel.sf.net
data_I
_chemical_name_common ''
_cell_length_a 18.067
_cell_length_b 20.611
_cell_length_c 18.888
_cell_angle_alpha 89.978
_cell_angle_beta 89.993
_cell_angle_gamma 90.027
_space_group_name_H-M_alt 'P 1'
_space_group_name_Hall 'P 1'
loop_
    _symmetry_equiv_pos_as_xyz
    x,y,z
loop_
    _atom_site_label
    _atom_site_type_symbol
    _atom_site_fract_x
    _atom_site_fract_y
    _atom_site_fract_z
    _atom_site_occupancy
    Zn0     Zn   0.06550   0.51387   0.59845   1.000
    Zn1     Zn   0.56550   0.01386   0.59845   1.000
    Zn2     Zn   0.56551   0.51387   0.59845   1.000
    Zn3     Zn   0.31549   0.48614   0.40148   1.000
    Zn4     Zn   0.31549   0.98615   0.40148   1.000
    Zn5     Zn   0.81550   0.48614   0.40148   1.000
    Zn6     Zn   0.81550   0.98615   0.40148   1.000
    Zn7     Zn   0.06545   0.23617   0.09852   1.000
    Zn8     Zn   0.06545   0.73618   0.09852   1.000
    Zn9     Zn   0.56546   0.23617   0.09852   1.000
    Zn10    Zn   0.56546   0.73618   0.09852   1.000
    Zn11    Zn   0.31546   0.26382   0.90148   1.000
    Zn12    Zn   0.31547   0.76383   0.90148   1.000
    Zn13    Zn   0.81547   0.26382   0.90148   1.000
    Zn14    Zn   0.81548   0.76383   0.90148   1.000
    Zn15    Zn   0.06549   0.01386   0.59845   1.000
    C16     C    0.46175   0.47231   0.69829   1.000
    C17     C    0.46175   0.97232   0.69829   1.000
    C18     C    0.96176   0.47231   0.69829   1.000
    C19     C    0.96176   0.97231   0.69829   1.000
    C20     C    0.21167   0.02771   0.30169   1.000
    C21     C    0.21167   0.52771   0.30169   1.000
    C22     C    0.71168   0.02771   0.30169   1.000
    C23     C    0.71168   0.52771   0.30160   1.000
    C24     C    0.46169   0.27774   0.19832   1.000
    C25     C    0.46169   0.77775   0.19832   1.000
    C26     C    0.96170   0.27774   0.19833   1.000
    C27     C    0.96170   0.77775   0.19830   1.000
    C28     C    0.21167   0.22227   0.80166   1.000
    C29     C    0.21168   0.72228   0.80166   1.000
    C30     C    0.71169   0.22227   0.80166   1.000
    C31     C    0.71168   0.72228   0.80166   1.000
    O32     O    0.01890   0.45004   0.66379   1.000
    O33     O    0.01890   0.95005   0.66379   1.000
    O34     O    0.51891   0.45004   0.66379   1.000
    O35     O    0.51891   0.95004   0.66370   1.000
    O36     O    0.43544   0.02771   0.69178   1.000
    O37     O    0.43545   0.52772   0.69178   1.000
    O38     O    0.93545   0.02771   0.69178   1.000
    O39     O    0.93545   0.52772   0.69178   1.000
    O40     O    0.26888   0.04995   0.33616   1.000
    O41     O    0.26888   0.54996   0.33616   1.000
    O42     O    0.76889   0.04995   0.33616   1.000
    O43     O    0.76889   0.54996   0.33616   1.000
    O44     O    0.18528   0.47232   0.30821   1.000
    O45     O    0.18528   0.97232   0.30820   1.000
    O46     O    0.68528   0.47232   0.30821   1.000
    O47     O    0.68529   0.97232   0.30820   1.000
    O48     O    0.01890   0.29999   0.16384   1.000
    O49     O    0.01890   0.80000   0.16380   1.000
    O50     O    0.51891   0.29999   0.16385   1.000
    O51     O    0.51892   0.79999   0.16385   1.000
    O52     O    0.43521   0.22238   0.19176   1.000
    O53     O    0.43521   0.72239   0.19176   1.000
    O54     O    0.93522   0.22239   0.19175   1.000
    O55     O    0.93522   0.72239   0.19170   1.000
    O56     O    0.26889   0.20004   0.83612   1.000
    O57     O    0.26889   0.70004   0.83612   1.000
    O58     O    0.76889   0.20003   0.83613   1.000
    O59     O    0.76890   0.70004   0.83612   1.000
    O60     O    0.18524   0.27762   0.80823   1.000
    O61     O    0.18524   0.77763   0.80823   1.000
    O62     O    0.68525   0.27762   0.80823   1.000
    O63     O    0.68526   0.77763   0.80823   1.000
loop_
    _geom_bond_atom_site_label_1
    _geom_bond_atom_site_label_2
    _geom_bond_distance
    _geom_bond_site_symmetry_2
    _ccdc_geom_bond_type
    Zn8    O49       1.98981      .   S
    Zn10   O51       1.99036      .   S
    Zn9    O50       1.99036      .   S
    Zn7    O48       1.99030      .   S
    O49    C27       1.30466  1_455   S
    O48    C26       1.30454  1_455   S
    O50    C24       1.30468      .   S
    O51    C25       1.30470      .   S
    O55    C27       1.24331      .   S
    O54    C26       1.24326      .   S
    O53    C25       1.24322      .   S
    O52    C24       1.24323      .   S
    C23    O46       1.24338      .   S
    C23    O43       1.30557      .   S
    C22    O47       1.24290  1_545   S
    C22    O42       1.30479      .   S
    C21    O44       1.24321      .   S
    C21    O41       1.30477      .   S
    C20    O45       1.24288  1_545   S
    C20    O40       1.30481      .   S
    O43    Zn5       1.99041      .   S
    O42    Zn6       1.99018  1_545   S
    O41    Zn3       1.99037      .   S
    O40    Zn4       1.99015  1_545   S
    Zn0    O32       1.98999      .   S
    Zn2    O34       1.98997      .   S
    Zn1    O35       1.98872  1_545   S
    Zn15   O33       1.98972  1_545   S
    O35    C17       1.30556      .   S
    O32    C18       1.30446  1_455   S
    O33    C19       1.30451  1_455   S
    O34    C16       1.30474      .   S
    O39    C18       1.24319      .   S
    O36    C17       1.24294  1_545   S
    O37    C16       1.24322      .   S
    O38    C19       1.24296  1_545   S
    C28    O60       1.24322      .   S
    C28    O56       1.30481      .   S
    C29    O61       1.24322      .   S
    C29    O57       1.30475      .   S
    C30    O62       1.24323      .   S
    C30    O58       1.30477      .   S
    C31    O63       1.24323      .   S
    C31    O59       1.30481      .   S
    O56    Zn11      1.99021      .   S
    O59    Zn14      1.99021      .   S
    O57    Zn12      1.99026      .   S
    O58    Zn13      1.99018      .   S
