# CIF file generated by openbabel 2.4.90, see http://openbabel.sf.net
data_I
_chemical_name_common ''
_cell_length_a 18.067
_cell_length_b 20.611
_cell_length_c 18.888
_cell_angle_alpha 89.978
_cell_angle_beta 89.993
_cell_angle_gamma 90.027
_space_group_name_H-M_alt 'P 1'
_space_group_name_Hall 'P 1'
loop_
    _symmetry_equiv_pos_as_xyz
    x,y,z
loop_
    _atom_site_label
    _atom_site_type_symbol
    _atom_site_fract_x
    _atom_site_fract_y
    _atom_site_fract_z
    _atom_site_occupancy
    Zr0     Zr   0.06549   0.01386   0.59845   1.000
    Zr1     Zr   0.06550   0.51387   0.59845   1.000
    Zr2     Zr   0.56550   0.01386   0.59845   1.000
    Zr3     Zr   0.56551   0.51387   0.59845   1.000
    Zr4     Zr   0.31549   0.48614   0.40148   1.000
    Zr5     Zr   0.31549   0.98615   0.40148   1.000
    Zr6     Zr   0.81550   0.48614   0.40148   1.000
    Zr7     Zr   0.81550   0.98615   0.40148   1.000
    Zr8     Zr   0.06545   0.23617   0.09852   1.000
    Zr9     Zr   0.06545   0.73618   0.09852   1.000
    Zr10    Zr   0.56546   0.23617   0.09852   1.000
    Zr11    Zr   0.56546   0.73618   0.09852   1.000
    Zr12    Zr   0.31546   0.26382   0.90148   1.000
    Zr13    Zr   0.31547   0.76383   0.90148   1.000
    Zr14    Zr   0.81547   0.26382   0.90148   1.000
    Zr15    Zr   0.81548   0.76383   0.90148   1.000
    Zr16    Zr   0.46175   0.47231   0.69829   1.000
    Zr17    Zr   0.46175   0.97232   0.69829   1.000
    Zr18    Zr   0.96176   0.47231   0.69829   1.000
    Zr19    Zr   0.96176   0.97231   0.69829   1.000
    Zr20    Zr   0.21167   0.02771   0.30169   1.000
    Zr21    Zr   0.21167   0.52771   0.30169   1.000
    Zr22    Zr   0.71168   0.02771   0.30169   1.000
    Zr23    Zr   0.71168   0.52771   0.30160   1.000
    Zr24    Zr   0.46169   0.27774   0.19832   1.000
    Zr25    Zr   0.46169   0.77775   0.19832   1.000
    Zr26    Zr   0.96170   0.27774   0.19833   1.000
    Zr27    Zr   0.96170   0.77775   0.19830   1.000
    Zr28    Zr   0.21167   0.22227   0.80166   1.000
    Zr29    Zr   0.21168   0.72228   0.80166   1.000
    Zr30    Zr   0.71169   0.22227   0.80166   1.000
    Zr31    Zr   0.71168   0.72228   0.80166   1.000
    Zr32    Zr   0.01890   0.45004   0.66379   1.000
    Zr33    Zr   0.01890   0.95005   0.66379   1.000
    Zr34    Zr   0.51891   0.45004   0.66379   1.000
    Zr35    Zr   0.51891   0.95004   0.66370   1.000
    Zr36    Zr   0.43544   0.02771   0.69178   1.000
    Zr37    Zr   0.43545   0.52772   0.69178   1.000
    Zr38    Zr   0.93545   0.02771   0.69178   1.000
    Zr39    Zr   0.93545   0.52772   0.69178   1.000
    Zr40    Zr   0.26888   0.04995   0.33616   1.000
    Zr41    Zr   0.26888   0.54996   0.33616   1.000
    Zr42    Zr   0.76889   0.04995   0.33616   1.000
    Zr43    Zr   0.76889   0.54996   0.33616   1.000
    Zr44    Zr   0.18528   0.47232   0.30821   1.000
    Zr45    Zr   0.18528   0.97232   0.30820   1.000
    Zr46    Zr   0.68528   0.47232   0.30821   1.000
    Zr47    Zr   0.68529   0.97232   0.30820   1.000
    Zr48    Zr   0.01890   0.29999   0.16384   1.000
    Zr49    Zr   0.01890   0.80000   0.16380   1.000
    Zr50    Zr   0.51891   0.29999   0.16385   1.000
    Zr51    Zr   0.51892   0.79999   0.16385   1.000
    Zr52    Zr   0.43521   0.22238   0.19176   1.000
    Zr53    Zr   0.43521   0.72239   0.19176   1.000
    Zr54    Zr   0.93522   0.22239   0.19175   1.000
    Zr55    Zr   0.93522   0.72239   0.19170   1.000
    Zr56    Zr   0.26889   0.20004   0.83612   1.000
    Zr57    Zr   0.26889   0.70004   0.83612   1.000
    Zr58    Zr   0.76889   0.20003   0.83613   1.000
    Zr59    Zr   0.76890   0.70004   0.83612   1.000
    Zr60    Zr   0.18524   0.27762   0.80823   1.000
    Zr61    Zr   0.18524   0.77763   0.80823   1.000
    Zr62    Zr   0.68525   0.27762   0.80823   1.000
    Zr63    Zr   0.68526   0.77763   0.80823   1.000
    O64     O    0.04218   0.76809   0.13116   1.000
    O65     O    0.54219   0.76809   0.13118   1.000
    O66     O    0.54218   0.26808   0.13118   1.000
    O67     O    0.04217   0.26808   0.13118   1.000
    O68     O    0.99030   0.78887   0.18105   1.000
    O69     O    0.99030   0.28887   0.18109   1.000
    O70     O    0.49030   0.28886   0.18108   1.000
    O71     O    0.49030   0.78887   0.18108   1.000
    O72     O    0.94846   0.75007   0.19500   1.000
    O73     O    0.94846   0.25006   0.19504   1.000
    O74     O    0.44845   0.75007   0.19504   1.000
    O75     O    0.44845   0.25006   0.19504   1.000
    O76     O    0.69848   0.50001   0.30490   1.000
    O77     O    0.74029   0.53884   0.31888   1.000
    O78     O    0.69848   0.00001   0.30494   1.000
    O79     O    0.74028   0.03883   0.31893   1.000
    O80     O    0.19847   0.50001   0.30495   1.000
    O81     O    0.24028   0.53884   0.31893   1.000
    O82     O    0.19847   0.00001   0.30494   1.000
    O83     O    0.24027   0.03883   0.31893   1.000
    O84     O    0.79219   0.51805   0.36882   1.000
    O85     O    0.79220   0.01805   0.36882   1.000
    O86     O    0.29219   0.51805   0.36882   1.000
    O87     O    0.29219   0.01805   0.36882   1.000
    O88     O    0.04220   0.48195   0.63112   1.000
    O89     O    0.54221   0.48195   0.63112   1.000
    O90     O    0.54221   0.98195   0.63107   1.000
    O91     O    0.04220   0.98195   0.63112   1.000
    O92     O    0.49033   0.96118   0.68100   1.000
    O93     O    0.99033   0.46117   0.68104   1.000
    O94     O    0.99033   0.96118   0.68104   1.000
    O95     O    0.49033   0.46117   0.68104   1.000
    O96     O    0.94861   0.50001   0.69503   1.000
    O97     O    0.44860   0.00001   0.69503   1.000
    O98     O    0.44860   0.50001   0.69503   1.000
    O99     O    0.94861   0.00001   0.69503   1.000
    O100    O    0.19846   0.24994   0.80495   1.000
    O101    O    0.24028   0.21115   0.81889   1.000
    O102    O    0.19846   0.74995   0.80495   1.000
    O103    O    0.24028   0.71116   0.81889   1.000
    O104    O    0.69847   0.24995   0.80495   1.000
    O105    O    0.74029   0.21115   0.81890   1.000
    O106    O    0.69847   0.74995   0.80495   1.000
    O107    O    0.74029   0.71116   0.81889   1.000
    O108    O    0.29218   0.23193   0.86880   1.000
    O109    O    0.79219   0.73193   0.86880   1.000
    O110    O    0.29218   0.73193   0.86880   1.000
    O111    O    0.79218   0.23192   0.86881   1.000
    N112    N    0.22505   0.84503   0.09204   1.000
    O113    O    0.16781   0.80203   0.08544   1.000
    O114    O    0.25382   0.81081   0.01642   1.000
    N115    N    0.14286   0.12788   0.70627   1.000
    O116    O    0.16850   0.16294   0.74157   1.000
    O117    O    0.11539   0.08833   0.66823   1.000
    N118    N    0.97504   0.59504   0.40771   1.000
    O119    O    0.00387   0.56083   0.48338   1.000
    O120    O    0.91785   0.55200   0.41440   1.000
    N121    N    0.14286   0.62789   0.70626   1.000
    O122    O    0.11539   0.58833   0.66822   1.000
    O123    O    0.16850   0.66295   0.74158   1.000
    N124    N    0.39280   0.37788   0.79363   1.000
    O125    O    0.36534   0.33831   0.83167   1.000
    O126    O    0.41849   0.41296   0.75833   1.000
    N127    N    0.72501   0.90498   0.59223   1.000
    O128    O    0.75384   0.93918   0.51656   1.000
    O129    O    0.66783   0.94801   0.58555   1.000
    N130    N    0.64277   0.62215   0.20639   1.000
    O131    O    0.66845   0.58707   0.24165   1.000
    O132    O    0.61531   0.66171   0.16835   1.000
    N133    N    0.47504   0.09503   0.40771   1.000
    O134    O    0.50387   0.06082   0.48338   1.000
    O135    O    0.41785   0.05200   0.41440   1.000
    N136    N    0.47500   0.15501   0.90777   1.000
    O137    O    0.50378   0.18920   0.98348   1.000
    O138    O    0.41778   0.19799   0.91446   1.000
    N139    N    0.64286   0.12788   0.70627   1.000
    O140    O    0.66851   0.16295   0.74158   1.000
    O141    O    0.61540   0.08833   0.66823   1.000
    N142    N    0.14276   0.62215   0.20638   1.000
    O143    O    0.16844   0.58707   0.24167   1.000
    O144    O    0.11530   0.66171   0.16834   1.000
    N145    N    0.14276   0.12215   0.20637   1.000
    O146    O    0.11530   0.16170   0.16832   1.000
    O147    O    0.16843   0.08706   0.24167   1.000
    N148    N    0.89290   0.37212   0.29368   1.000
    O149    O    0.86542   0.41167   0.33171   1.000
    O150    O    0.91853   0.33706   0.25838   1.000
    N151    N    0.22500   0.90498   0.59223   1.000
    O152    O    0.16783   0.94801   0.58555   1.000
    O153    O    0.25384   0.93918   0.51656   1.000
    N154    N    0.72500   0.40497   0.59223   1.000
    O155    O    0.75384   0.43918   0.51656   1.000
    O156    O    0.66783   0.44801   0.58555   1.000
    N157    N    0.47504   0.59504   0.40771   1.000
    O158    O    0.50387   0.56083   0.48337   1.000
    O159    O    0.41785   0.55200   0.41439   1.000
    N160    N    0.89281   0.37788   0.79363   1.000
    O161    O    0.91849   0.41296   0.75833   1.000
    O162    O    0.86534   0.33831   0.83167   1.000
    N163    N    0.64287   0.62789   0.70627   1.000
    O164    O    0.66851   0.66295   0.74159   1.000
    O165    O    0.61540   0.58833   0.66823   1.000
    N166    N    0.97500   0.65501   0.90777   1.000
    O167    O    0.91779   0.69800   0.91446   1.000
    O168    O    0.00378   0.68921   0.98348   1.000
    N169    N    0.39289   0.87212   0.29371   1.000
    O170    O    0.41853   0.83706   0.25840   1.000
    O171    O    0.36541   0.91168   0.33173   1.000
    N172    N    0.22505   0.34502   0.09204   1.000
    O173    O    0.16781   0.30202   0.08544   1.000
    O174    O    0.25382   0.31081   0.01641   1.000
    N175    N    0.97500   0.15501   0.90776   1.000
    O176    O    0.00378   0.18920   0.98348   1.000
    O177    O    0.91779   0.19799   0.91446   1.000
    N178    N    0.39281   0.87788   0.79363   1.000
    O179    O    0.36534   0.83832   0.83167   1.000
    O180    O    0.41849   0.91297   0.75833   1.000
    N181    N    0.64277   0.12215   0.20637   1.000
    O182    O    0.66844   0.08706   0.24166   1.000
    O183    O    0.61531   0.16170   0.16831   1.000
    N184    N    0.22499   0.40497   0.59223   1.000
    O185    O    0.16782   0.44801   0.58555   1.000
    O186    O    0.25383   0.43918   0.51656   1.000
    N187    N    0.97504   0.09503   0.40771   1.000
    O188    O    0.00386   0.06082   0.48337   1.000
    O189    O    0.91785   0.05200   0.41439   1.000
    N190    N    0.72506   0.34502   0.09204   1.000
    O191    O    0.66782   0.30202   0.08544   1.000
    O192    O    0.75383   0.31081   0.01642   1.000
    N193    N    0.89282   0.87788   0.79363   1.000
    O194    O    0.91850   0.91297   0.75833   1.000
    O195    O    0.86535   0.83832   0.83167   1.000
    N196    N    0.72506   0.84503   0.09204   1.000
    O197    O    0.66782   0.80203   0.08544   1.000
    O198    O    0.75383   0.81081   0.01642   1.000
    N199    N    0.47500   0.65501   0.90777   1.000
    O200    O    0.41778   0.69800   0.91446   1.000
    O201    O    0.50378   0.68921   0.98348   1.000
    N202    N    0.89290   0.87212   0.29371   1.000
    O203    O    0.91854   0.83706   0.25839   1.000
    O204    O    0.86542   0.91168   0.33172   1.000
    N205    N    0.39289   0.37212   0.29371   1.000
    O206    O    0.41852   0.33706   0.25839   1.000
    O207    O    0.36541   0.41167   0.33173   1.000
loop_
    _geom_bond_atom_site_label_1
    _geom_bond_atom_site_label_2
    _geom_bond_distance
    _geom_bond_site_symmetry_2
    _ccdc_geom_bond_type
    Zr9    O64       0.99490      .   S
    Zr49   O64       0.99490      .   S
    Zr11   O65       0.99518      .   S
    Zr51   O65       0.99518      .   S
    Zr10   O66       0.99518      .   S
    Zr50   O66       0.99518      .   S
    Zr8    O67       0.99515      .   S
    Zr48   O67       0.99515      .   S
    Zr49   O68       0.65233  1_455   S
    Zr27   O68       0.65233      .   S
    Zr48   O69       0.65227  1_455   S
    Zr26   O69       0.65227      .   S
    Zr50   O70       0.65234      .   S
    Zr24   O70       0.65234      .   S
    Zr51   O71       0.65235      .   S
    Zr25   O71       0.65235      .   S
    Zr55   O72       0.62165      .   S
    Zr27   O72       0.62165      .   S
    Zr54   O73       0.62163      .   S
    Zr26   O73       0.62163      .   S
    Zr53   O74       0.62161      .   S
    Zr25   O74       0.62161      .   S
    Zr52   O75       0.62161      .   S
    Zr24   O75       0.62161      .   S
    Zr23   O76       0.62169      .   S
    Zr46   O76       0.62169      .   S
    Zr23   O77       0.65279      .   S
    Zr43   O77       0.65279      .   S
    Zr22   O78       0.62145      .   S
    Zr47   O78       0.62145  1_565   S
    Zr22   O79       0.65240      .   S
    Zr42   O79       0.65240      .   S
    Zr21   O80       0.62161      .   S
    Zr44   O80       0.62161      .   S
    Zr21   O81       0.65239      .   S
    Zr41   O81       0.65239      .   S
    Zr20   O82       0.62144      .   S
    Zr45   O82       0.62144  1_565   S
    Zr20   O83       0.65241      .   S
    Zr40   O83       0.65241      .   S
    Zr43   O84       0.99521      .   S
    Zr6    O84       0.99521      .   S
    Zr42   O85       0.99509      .   S
    Zr7    O85       0.99509  1_565   S
    Zr41   O86       0.99519      .   S
    Zr4    O86       0.99519      .   S
    Zr40   O87       0.99508      .   S
    Zr5    O87       0.99508  1_565   S
    Zr1    O88       0.99499      .   S
    Zr32   O88       0.99499      .   S
    Zr3    O89       0.99498      .   S
    Zr34   O89       0.99498      .   S
    Zr2    O90       0.99436  1_545   S
    Zr35   O90       0.99436      .   S
    Zr0    O91       0.99486  1_545   S
    Zr33   O91       0.99486      .   S
    Zr35   O92       0.65278      .   S
    Zr17   O92       0.65278      .   S
    Zr32   O93       0.65223  1_455   S
    Zr18   O93       0.65223      .   S
    Zr33   O94       0.65226  1_455   S
    Zr19   O94       0.65226      .   S
    Zr34   O95       0.65237      .   S
    Zr16   O95       0.65237      .   S
    Zr39   O96       0.62159      .   S
    Zr18   O96       0.62159      .   S
    Zr36   O97       0.62147      .   S
    Zr17   O97       0.62147  1_565   S
    Zr37   O98       0.62161      .   S
    Zr16   O98       0.62161      .   S
    Zr38   O99       0.62148      .   S
    Zr19   O99       0.62148  1_565   S
    Zr28   O100      0.62161      .   S
    Zr60   O100      0.62161      .   S
    Zr28   O101      0.65241      .   S
    Zr56   O101      0.65241      .   S
    Zr29   O102      0.62161      .   S
    Zr61   O102      0.62161      .   S
    Zr29   O103      0.65237      .   S
    Zr57   O103      0.65237      .   S
    Zr30   O104      0.62161      .   S
    Zr62   O104      0.62161      .   S
    Zr30   O105      0.65238      .   S
    Zr58   O105      0.65238      .   S
    Zr31   O106      0.62161      .   S
    Zr63   O106      0.62161      .   S
    Zr31   O107      0.65241      .   S
    Zr59   O107      0.65241      .   S
    Zr56   O108      0.99511      .   S
    Zr12   O108      0.99511      .   S
    Zr59   O109      0.99511      .   S
    Zr15   O109      0.99511      .   S
    Zr57   O110      0.99513      .   S
    Zr13   O110      0.99513      .   S
    Zr58   O111      0.99509      .   S
    Zr14   O111      0.99509      .   S
    N112   O113      1.36738      .   S
    Zr9    O113      2.30653      .   S
    N112   O114      1.67592      .   S
    Zr13   O114      2.62549  1_556   S
    N115   O116      1.08713      .   S
    Zr28   O116      1.84175      .   S
    N115   O117      1.19459      .   S
    Zr0    O117      2.21497      .   S
    N118   O119      1.67646  1_655   S
    Zr1    O119      2.62697      .   S
    N118   O120      1.36723      .   S
    Zr6    O120      2.30641      .   S
    N121   O122      1.19470      .   S
    Zr1    O122      2.21480      .   S
    N121   O123      1.08730      .   S
    Zr29   O123      1.84168      .   S
    N124   O125      1.19444      .   S
    Zr12   O125      2.21460      .   S
    N124   O126      1.08717      .   S
    Zr16   O126      1.84149      .   S
    N127   O128      1.67634      .   S
    Zr7    O128      2.62670      .   S
    N127   O129      1.36757      .   S
    Zr2    O129      2.30693  1_545   S
    N130   O131      1.08706      .   S
    Zr23   O131      1.84096      .   S
    N130   O132      1.19468      .   S
    Zr11   O132      2.21512      .   S
    N133   O134      1.67651      .   S
    Zr2    O134      2.62703      .   S
    N133   O135      1.36724      .   S
    Zr5    O135      2.30629  1_565   S
    N136   O137      1.67720      .   S
    Zr10   O137      2.62706  1_554   S
    N136   O138      1.36762      .   S
    Zr12   O138      2.30657      .   S
    N139   O140      1.08728      .   S
    Zr30   O140      1.84165      .   S
    N139   O141      1.19462      .   S
    Zr2    O141      2.21497      .   S
    N142   O143      1.08737      .   S
    Zr21   O143      1.84180      .   S
    N142   O144      1.19463      .   S
    Zr9    O144      2.21506      .   S
    N145   O146      1.19485      .   S
    Zr8    O146      2.21475      .   S
    N145   O147      1.08742      .   S
    Zr20   O147      1.84180      .   S
    N148   O149      1.19494      .   S
    Zr6    O149      2.21560      .   S
    N148   O150      1.08707      .   S
    Zr26   O150      1.84146      .   S
    N151   O152      1.36757      .   S
    Zr0    O152      2.30693  1_545   S
    N151   O153      1.67634      .   S
    Zr5    O153      2.62670      .   S
    N154   O155      1.67634      .   S
    Zr6    O155      2.62669      .   S
    N154   O156      1.36760      .   S
    Zr3    O156      2.30701      .   S
    N157   O158      1.67656      .   S
    Zr3    O158      2.62708      .   S
    N157   O159      1.36730      .   S
    Zr4    O159      2.30646      .   S
    N160   O161      1.08717      .   S
    Zr18   O161      1.84150      .   S
    N160   O162      1.19446      .   S
    Zr14   O162      2.21461      .   S
    N163   O164      1.08725      .   S
    Zr31   O164      1.84158      .   S
    N163   O165      1.19462      .   S
    Zr3    O165      2.21499      .   S
    N166   O167      1.36757      .   S
    Zr15   O167      2.30651      .   S
    N166   O168      1.67717  1_655   S
    Zr9    O168      2.62703  1_554   S
    N169   O170      1.08731      .   S
    Zr25   O170      1.84170      .   S
    N169   O171      1.19478      .   S
    Zr5    O171      2.21536      .   S
    N172   O173      1.36739      .   S
    Zr8    O173      2.30653      .   S
    N172   O174      1.67592      .   S
    Zr12   O174      2.62549  1_556   S
    N175   O176      1.67719  1_655   S
    Zr8    O176      2.62704  1_554   S
    N175   O177      1.36757      .   S
    Zr14   O177      2.30651      .   S
    N178   O179      1.19445      .   S
    Zr13   O179      2.21461      .   S
    N178   O180      1.08717      .   S
    Zr17   O180      1.84149      .   S
    N181   O182      1.08736      .   S
    Zr22   O182      1.84192      .   S
    N181   O183      1.19482      .   S
    Zr10   O183      2.21473      .   S
    N184   O185      1.36760      .   S
    Zr1    O185      2.30701      .   S
    N184   O186      1.67634      .   S
    Zr4    O186      2.62669      .   S
    N187   O188      1.67654  1_655   S
    Zr0    O188      2.62704      .   S
    N187   O189      1.36719      .   S
    Zr7    O189      2.30623  1_565   S
    N190   O191      1.36739      .   S
    Zr10   O191      2.30653      .   S
    N190   O192      1.67579      .   S
    Zr14   O192      2.62560  1_556   S
    N193   O194      1.08712      .   S
    Zr19   O194      1.84144      .   S
    N193   O195      1.19450      .   S
    Zr15   O195      2.21464      .   S
    N196   O197      1.36739      .   S
    Zr11   O197      2.30654      .   S
    N196   O198      1.67592      .   S
    Zr15   O198      2.62549  1_556   S
    N199   O200      1.36762      .   S
    Zr13   O200      2.30657      .   S
    N199   O201      1.67716      .   S
    Zr11   O201      2.62702  1_554   S
    N202   O203      1.08734      .   S
    Zr27   O203      1.84186      .   S
    N202   O204      1.19481      .   S
    Zr7    O204      2.21541      .   S
    N205   O206      1.08729      .   S
    Zr24   O206      1.84170      .   S
    N205   O207      1.19479      .   S
    Zr4    O207      2.21538      .   S
