# CIF file generated by openbabel 2.4.90, see http://openbabel.sf.net
data_I
_chemical_name_common ''
_cell_length_a 13.941
_cell_length_b 20.677
_cell_length_c 22.214
_cell_angle_alpha 89.995
_cell_angle_beta 90.511
_cell_angle_gamma 101.284
_space_group_name_H-M_alt 'P 1'
_space_group_name_Hall 'P 1'
loop_
    _symmetry_equiv_pos_as_xyz
    x,y,z
loop_
    _atom_site_label
    _atom_site_type_symbol
    _atom_site_fract_x
    _atom_site_fract_y
    _atom_site_fract_z
    _atom_site_occupancy
    Lv0     Lv   0.74118   0.58773   0.26284   1.000
    Lv1     Lv   0.27177   0.85674   0.49639   1.000
    Lv2     Lv   0.25825   0.91216   0.76204   1.000
    Lv3     Lv   0.72806   0.64350   0.99648   1.000
    Lv4     Lv   0.72816   0.14329   0.50358   1.000
    Lv5     Lv   0.79881   0.62531   0.76551   1.000
    Lv6     Lv   0.27198   0.35652   0.00349   1.000
    Lv7     Lv   0.74179   0.08786   0.23794   1.000
    Lv8     Lv   0.79904   0.12614   0.73504   1.000
    Lv9     Lv   0.20098   0.87388   0.26493   1.000
    Lv10    Lv   0.25886   0.41228   0.73715   1.000
    Lv11    Lv   0.20129   0.37472   0.23445   1.000
