# CIF file generated by openbabel 2.4.90, see http://openbabel.sf.net
data_I
_chemical_name_common ''
_cell_length_a 13.941
_cell_length_b 20.677
_cell_length_c 22.214
_cell_angle_alpha 89.995
_cell_angle_beta 90.511
_cell_angle_gamma 101.284
_space_group_name_H-M_alt 'P 1'
_space_group_name_Hall 'P 1'
loop_
    _symmetry_equiv_pos_as_xyz
    x,y,z
loop_
    _atom_site_label
    _atom_site_type_symbol
    _atom_site_fract_x
    _atom_site_fract_y
    _atom_site_fract_z
    _atom_site_occupancy
    Zn0     Zn   0.87496   0.36722   0.01032   1.000
    Zn1     Zn   0.66706   0.84199   0.51029   1.000
    Zn2     Zn   0.87476   0.86717   0.49195   1.000
    Zn3     Zn   0.33297   0.15802   0.48970   1.000
    Zn4     Zn   0.12526   0.13285   0.50803   1.000
    Zn5     Zn   0.33302   0.65816   0.01043   1.000
    Zn6     Zn   0.12507   0.63279   0.98966   1.000
    Zn7     Zn   0.66702   0.34186   0.98955   1.000
    C8      C    0.79685   0.45606   0.92661   1.000
    C9      C    0.20323   0.54397   0.07339   1.000
    C10     C    0.74520   0.75563   0.42535   1.000
    C11     C    0.76643   0.43075   0.09489   1.000
    C12     C    0.77371   0.77827   0.59410   1.000
    C13     C    0.79865   0.95643   0.57457   1.000
    O14     O    0.67044   0.76095   0.45580   1.000
    O15     O    0.85446   0.43344   0.07804   1.000
    O16     O    0.70991   0.42885   0.94050   1.000
    O17     O    0.83010   0.79197   0.42995   1.000
    O18     O    0.87514   0.44173   0.94803   1.000
    C19     C    0.74685   0.25553   0.07505   1.000
    C20     C    0.76541   0.93066   0.40620   1.000
    C21     C    0.77339   0.27844   0.90662   1.000
    C22     C    0.20139   0.04358   0.42542   1.000
    C23     C    0.25320   0.74449   0.92493   1.000
    C24     C    0.23462   0.06936   0.59377   1.000
    C25     C    0.22664   0.72158   0.09336   1.000
    C26     C    0.25483   0.24439   0.57463   1.000
    C27     C    0.23360   0.56927   0.90510   1.000
    C28     C    0.22633   0.22174   0.40590   1.000
    O29     O    0.69042   0.39685   0.07036   1.000
    O30     O    0.68753   0.78894   0.58578   1.000
    O31     O    0.84790   0.79998   0.56184   1.000
    O32     O    0.67168   0.26109   0.04410   1.000
    O33     O    0.85329   0.93349   0.42443   1.000
    O34     O    0.71182   0.92916   0.55948   1.000
    O35     O    0.83195   0.29159   0.07093   1.000
    O36     O    0.87707   0.94193   0.55443   1.000
    O37     O    0.68912   0.89677   0.42965   1.000
    O38     O    0.68711   0.28887   0.91420   1.000
    O39     O    0.84752   0.30002   0.93976   1.000
    O40     O    0.32837   0.73893   0.95581   1.000
    O41     O    0.14674   0.06653   0.57555   1.000
    O42     O    0.28821   0.07085   0.44050   1.000
    O43     O    0.16810   0.70842   0.92905   1.000
    O44     O    0.12296   0.05809   0.44556   1.000
    O45     O    0.31092   0.10324   0.57034   1.000
    O46     O    0.31291   0.71116   0.08578   1.000
    O47     O    0.15250   0.70000   0.06023   1.000
    O48     O    0.32958   0.23906   0.54411   1.000
    O49     O    0.14557   0.56657   0.92195   1.000
    O50     O    0.29017   0.57120   0.05949   1.000
    O51     O    0.16993   0.20805   0.57004   1.000
    O52     O    0.12493   0.55828   0.05196   1.000
    O53     O    0.30961   0.60316   0.92963   1.000
    O54     O    0.31251   0.21107   0.41421   1.000
    O55     O    0.15214   0.20004   0.43815   1.000
loop_
    _geom_bond_atom_site_label_1
    _geom_bond_atom_site_label_2
    _geom_bond_distance
    _geom_bond_site_symmetry_2
    _ccdc_geom_bond_type
    Zn0    O35       2.06519      .   S
    Zn0    O15       2.09303      .   S
    Zn0    O39       2.07746  1_554   S
    Zn0    O18       2.07033  1_554   S
    Zn5    O50       2.09013      .   S
    Zn5    O46       2.05182      .   S
    Zn5    O53       2.11332  1_554   S
    Zn5    O40       2.07518  1_554   S
    O32    C19       1.27212      .   S
    O32    Zn7       2.07438  1_554   S
    O52    C9        1.27390      .   S
    O52    Zn6       2.07054  1_554   S
    O50    C9        1.27318      .   S
    O47    C25       1.27080      .   S
    O47    Zn6       2.07769  1_554   S
    O29    C11       1.26895      .   S
    O29    Zn7       2.11340  1_554   S
    O35    C19       1.27576      .   S
    O15    C11       1.27698      .   S
    O46    C25       1.27535      .   S
    C28    O54       1.27512      .   S
    C28    O55       1.27122      .   S
    C20    O33       1.27728      .   S
    C20    O37       1.26953      .   S
    O54    Zn3       2.05191      .   S
    O33    Zn2       2.09091      .   S
    C10    O17       1.27506      .   S
    C10    O14       1.27017      .   S
    C22    O42       1.27320      .   S
    C22    O44       1.27379      .   S
    O37    Zn1       2.11183      .   S
    O17    Zn2       2.07569      .   S
    O55    Zn4       2.07035      .   S
    O42    Zn3       2.09308      .   S
    O44    Zn4       2.07281      .   S
    O14    Zn1       2.07541      .   S
    Zn3    O48       2.07440      .   S
    Zn3    O45       2.11179      .   S
    Zn2    O36       2.07299      .   S
    Zn2    O31       2.07046      .   S
    Zn4    O51       2.07583      .   S
    Zn4    O41       2.09093      .   S
    Zn1    O34       2.09296      .   S
    Zn1    O30       2.05196      .   S
    O48    C26       1.27100      .   S
    O36    C13       1.27378      .   S
    O34    C13       1.27327      .   S
    O31    C12       1.27131      .   S
    O51    C26       1.27503      .   S
    O45    C24       1.26934      .   S
    O41    C24       1.27721      .   S
    O30    C12       1.27517      .   S
    C27    O49       1.27699      .   S
    C27    O53       1.26893      .   S
    C21    O38       1.27538      .   S
    C21    O39       1.27093      .   S
    O38    Zn7       2.05175      .   S
    O49    Zn6       2.09282      .   S
    C23    O43       1.27575      .   S
    C23    O40       1.27130      .   S
    C8     O16       1.27310      .   S
    C8     O18       1.27384      .   S
    O43    Zn6       2.06524      .   S
    O16    Zn7       2.09057      .   S
    Zn7    Zn0       2.87634  1_556   S
    Zn1    Zn2       2.87277      .   S
    Zn3    Zn4       2.87275      .   S
    Zn5    Zn6       2.87637  1_554   S
