# CIF file generated by openbabel 2.4.90, see http://openbabel.sf.net
data_I
_chemical_name_common ''
_cell_length_a 13.941
_cell_length_b 20.677
_cell_length_c 22.214
_cell_angle_alpha 89.995
_cell_angle_beta 90.511
_cell_angle_gamma 101.284
_space_group_name_H-M_alt 'P 1'
_space_group_name_Hall 'P 1'
loop_
    _symmetry_equiv_pos_as_xyz
    x,y,z
loop_
    _atom_site_label
    _atom_site_type_symbol
    _atom_site_fract_x
    _atom_site_fract_y
    _atom_site_fract_z
    _atom_site_occupancy
    Zr0     Zr   0.66702   0.34186   0.98955   1.000
    Zr1     Zr   0.87496   0.36722   0.01032   1.000
    Zr2     Zr   0.66706   0.84199   0.51029   1.000
    Zr3     Zr   0.87476   0.86717   0.49195   1.000
    Zr4     Zr   0.33297   0.15802   0.48970   1.000
    Zr5     Zr   0.12526   0.13285   0.50803   1.000
    Zr6     Zr   0.33302   0.65816   0.01043   1.000
    Zr7     Zr   0.12507   0.63279   0.98966   1.000
    Zr8     Zr   0.79685   0.45606   0.92661   1.000
    Zr9     Zr   0.74520   0.75563   0.42535   1.000
    Zr10    Zr   0.76643   0.43075   0.09489   1.000
    Zr11    Zr   0.77371   0.77827   0.59410   1.000
    Zr12    Zr   0.79865   0.95643   0.57457   1.000
    Zr13    Zr   0.74685   0.25553   0.07505   1.000
    Zr14    Zr   0.76541   0.93066   0.40620   1.000
    Zr15    Zr   0.77339   0.27844   0.90662   1.000
    Zr16    Zr   0.20139   0.04358   0.42542   1.000
    Zr17    Zr   0.25320   0.74449   0.92493   1.000
    Zr18    Zr   0.23462   0.06936   0.59377   1.000
    Zr19    Zr   0.22664   0.72158   0.09336   1.000
    Zr20    Zr   0.20323   0.54397   0.07339   1.000
    Zr21    Zr   0.25483   0.24439   0.57463   1.000
    Zr22    Zr   0.23360   0.56927   0.90510   1.000
    Zr23    Zr   0.22633   0.22174   0.40590   1.000
    Zr24    Zr   0.67044   0.76095   0.45580   1.000
    Zr25    Zr   0.85446   0.43344   0.07804   1.000
    Zr26    Zr   0.70991   0.42885   0.94050   1.000
    Zr27    Zr   0.83010   0.79197   0.42995   1.000
    Zr28    Zr   0.87514   0.44173   0.94803   1.000
    Zr29    Zr   0.69042   0.39685   0.07036   1.000
    Zr30    Zr   0.68753   0.78894   0.58578   1.000
    Zr31    Zr   0.84790   0.79998   0.56184   1.000
    Zr32    Zr   0.67168   0.26109   0.04410   1.000
    Zr33    Zr   0.85329   0.93349   0.42443   1.000
    Zr34    Zr   0.71182   0.92916   0.55948   1.000
    Zr35    Zr   0.83195   0.29159   0.07093   1.000
    Zr36    Zr   0.87707   0.94193   0.55443   1.000
    Zr37    Zr   0.68912   0.89677   0.42965   1.000
    Zr38    Zr   0.68711   0.28887   0.91420   1.000
    Zr39    Zr   0.84752   0.30002   0.93976   1.000
    Zr40    Zr   0.32837   0.73893   0.95581   1.000
    Zr41    Zr   0.14674   0.06653   0.57555   1.000
    Zr42    Zr   0.28821   0.07085   0.44050   1.000
    Zr43    Zr   0.16810   0.70842   0.92905   1.000
    Zr44    Zr   0.12296   0.05809   0.44556   1.000
    Zr45    Zr   0.31092   0.10324   0.57034   1.000
    Zr46    Zr   0.31291   0.71116   0.08578   1.000
    Zr47    Zr   0.15250   0.70000   0.06023   1.000
    Zr48    Zr   0.32958   0.23906   0.54411   1.000
    Zr49    Zr   0.14557   0.56657   0.92195   1.000
    Zr50    Zr   0.29017   0.57120   0.05949   1.000
    Zr51    Zr   0.16993   0.20805   0.57004   1.000
    Zr52    Zr   0.12493   0.55828   0.05196   1.000
    Zr53    Zr   0.30961   0.60316   0.92963   1.000
    Zr54    Zr   0.31251   0.21107   0.41421   1.000
    Zr55    Zr   0.15214   0.20004   0.43815   1.000
    O56     O    0.85346   0.32941   0.04063   1.000
    O57     O    0.86471   0.40033   0.04418   1.000
    O58     O    0.86124   0.33362   0.97504   1.000
    O59     O    0.87505   0.40448   0.97918   1.000
    O60     O    0.31159   0.61468   0.03496   1.000
    O61     O    0.32297   0.68466   0.04811   1.000
    O62     O    0.32131   0.63066   0.97003   1.000
    O63     O    0.33069   0.69854   0.98312   1.000
    O64     O    0.70927   0.25831   0.05958   1.000
    O65     O    0.66935   0.30147   0.01683   1.000
    O66     O    0.16408   0.55113   0.06268   1.000
    O67     O    0.12500   0.59554   0.02081   1.000
    O68     O    0.24670   0.55758   0.06644   1.000
    O69     O    0.18957   0.71079   0.07680   1.000
    O70     O    0.13879   0.66639   0.02495   1.000
    O71     O    0.72843   0.41380   0.08263   1.000
    O72     O    0.67872   0.36936   0.02996   1.000
    O73     O    0.78940   0.27356   0.07299   1.000
    O74     O    0.81045   0.43210   0.08647   1.000
    O75     O    0.26978   0.71637   0.08957   1.000
    O76     O    0.26942   0.21641   0.41006   1.000
    O77     O    0.18923   0.21089   0.42203   1.000
    O78     O    0.80935   0.93207   0.41532   1.000
    O79     O    0.72727   0.91372   0.41793   1.000
    O80     O    0.32274   0.18455   0.45196   1.000
    O81     O    0.86403   0.90033   0.45819   1.000
    O82     O    0.78765   0.77380   0.42765   1.000
    O83     O    0.70782   0.75829   0.44058   1.000
    O84     O    0.24480   0.05721   0.43296   1.000
    O85     O    0.16218   0.05083   0.43549   1.000
    O86     O    0.67809   0.86938   0.46997   1.000
    O87     O    0.85243   0.82957   0.46095   1.000
    O88     O    0.13870   0.16644   0.47309   1.000
    O89     O    0.31059   0.11443   0.46510   1.000
    O90     O    0.12411   0.09547   0.47680   1.000
    O91     O    0.66875   0.80147   0.48305   1.000
    O92     O    0.33128   0.19854   0.51691   1.000
    O93     O    0.32194   0.13063   0.53002   1.000
    O94     O    0.87592   0.90455   0.52319   1.000
    O95     O    0.86133   0.83357   0.52690   1.000
    O96     O    0.14760   0.17045   0.53904   1.000
    O97     O    0.13600   0.09969   0.54179   1.000
    O98     O    0.68944   0.88558   0.53489   1.000
    O99     O    0.67729   0.81546   0.54804   1.000
    O100    O    0.29221   0.24172   0.55937   1.000
    O101    O    0.83786   0.94918   0.56450   1.000
    O102    O    0.75523   0.94280   0.56703   1.000
    O103    O    0.81080   0.78913   0.57797   1.000
    O104    O    0.21238   0.22622   0.57234   1.000
    O105    O    0.27277   0.08630   0.58206   1.000
    O106    O    0.19068   0.06795   0.58466   1.000
    O107    O    0.73062   0.78361   0.58994   1.000
    O108    O    0.18958   0.56792   0.91353   1.000
    O109    O    0.27160   0.58621   0.91737   1.000
    O110    O    0.73025   0.28365   0.91041   1.000
    O111    O    0.81045   0.28923   0.92319   1.000
    O112    O    0.67706   0.31537   0.95188   1.000
    O113    O    0.13532   0.59968   0.95581   1.000
    O114    O    0.21065   0.72645   0.92699   1.000
    O115    O    0.29078   0.74171   0.94037   1.000
    O116    O    0.75338   0.44246   0.93356   1.000
    O117    O    0.83599   0.44890   0.93732   1.000
    O118    O    0.14658   0.67061   0.95936   1.000
    O119    O    0.68846   0.38536   0.96503   1.000
    O120    O    0.77099   0.35454   0.99994   1.000
    O121    O    0.77091   0.85458   0.50112   1.000
    O122    O    0.22912   0.14544   0.49887   1.000
    O123    O    0.22904   0.64547   0.00005   1.000
    N124    N    0.74118   0.58773   0.26284   1.000
    O125    O    0.74013   0.65823   0.33246   1.000
    O126    O    0.74972   0.51972   0.19205   1.000
    N127    N    0.27177   0.85674   0.49639   1.000
    O128    O    0.43270   0.84970   0.50272   1.000
    O129    O    0.11011   0.86211   0.49318   1.000
    N130    N    0.25825   0.91216   0.76204   1.000
    O131    O    0.25040   0.98026   0.69115   1.000
    O132    O    0.25875   0.84174   0.83186   1.000
    N133    N    0.72806   0.64350   0.99648   1.000
    O134    O    0.56730   0.65060   0.00298   1.000
    O135    O    0.88963   0.63795   0.99238   1.000
    N136    N    0.72816   0.14329   0.50358   1.000
    O137    O    0.88987   0.13791   0.50678   1.000
    O138    O    0.56728   0.15032   0.49726   1.000
    N139    N    0.79881   0.62531   0.76551   1.000
    O140    O    0.79046   0.69120   0.69292   1.000
    O141    O    0.80074   0.55418   0.83451   1.000
    N142    N    0.27198   0.35652   0.00349   1.000
    O143    O    0.43274   0.34942   0.99698   1.000
    O144    O    0.11041   0.36207   0.00760   1.000
    N145    N    0.74179   0.08786   0.23794   1.000
    O146    O    0.74964   0.01977   0.30883   1.000
    O147    O    0.74129   0.15828   0.16813   1.000
    N148    N    0.79904   0.12614   0.73504   1.000
    O149    O    0.80162   0.05488   0.66629   1.000
    O150    O    0.79042   0.19183   0.80766   1.000
    N151    N    0.20098   0.87388   0.26493   1.000
    O152    O    0.19841   0.94514   0.33369   1.000
    O153    O    0.20960   0.80819   0.19231   1.000
    N154    N    0.25886   0.41228   0.73715   1.000
    O155    O    0.25990   0.34178   0.66753   1.000
    O156    O    0.25031   0.48029   0.80794   1.000
    N157    N    0.20129   0.37472   0.23445   1.000
    O158    O    0.20961   0.30883   0.30706   1.000
    O159    O    0.19935   0.44585   0.16532   1.000
loop_
    _geom_bond_atom_site_label_1
    _geom_bond_atom_site_label_2
    _geom_bond_distance
    _geom_bond_site_symmetry_2
    _ccdc_geom_bond_type
    Zr1    O56       1.03259      .   S
    Zr35   O56       1.03259      .   S
    Zr1    O57       1.04652      .   S
    Zr25   O57       1.04652      .   S
    Zr1    O58       1.03873  1_554   S
    Zr39   O58       1.03873      .   S
    Zr1    O59       1.03517  1_554   S
    Zr28   O59       1.03517      .   S
    Zr6    O60       1.04507      .   S
    Zr50   O60       1.04507      .   S
    Zr6    O61       1.02591      .   S
    Zr46   O61       1.02591      .   S
    Zr6    O62       1.05666  1_554   S
    Zr53   O62       1.05666      .   S
    Zr6    O63       1.03759  1_554   S
    Zr40   O63       1.03759      .   S
    Zr32   O64       0.63606      .   S
    Zr13   O64       0.63606      .   S
    Zr32   O65       1.03719      .   S
    Zr0    O65       1.03719  1_556   S
    Zr52   O66       0.63695      .   S
    Zr20   O66       0.63695      .   S
    Zr52   O67       1.03527      .   S
    Zr7    O67       1.03527  1_556   S
    Zr50   O68       0.63659      .   S
    Zr20   O68       0.63659      .   S
    Zr47   O69       0.63540      .   S
    Zr19   O69       0.63540      .   S
    Zr47   O70       1.03884      .   S
    Zr7    O70       1.03884  1_556   S
    Zr29   O71       0.63448      .   S
    Zr10   O71       0.63448      .   S
    Zr29   O72       1.05670      .   S
    Zr0    O72       1.05670  1_556   S
    Zr35   O73       0.63788      .   S
    Zr13   O73       0.63788      .   S
    Zr25   O74       0.63849      .   S
    Zr10   O74       0.63849      .   S
    Zr46   O75       0.63768      .   S
    Zr19   O75       0.63768      .   S
    Zr23   O76       0.63756      .   S
    Zr54   O76       0.63756      .   S
    Zr23   O77       0.63561      .   S
    Zr55   O77       0.63561      .   S
    Zr14   O78       0.63864      .   S
    Zr33   O78       0.63864      .   S
    Zr14   O79       0.63476      .   S
    Zr37   O79       0.63476      .   S
    Zr54   O80       1.02595      .   S
    Zr4    O80       1.02595      .   S
    Zr33   O81       1.04546      .   S
    Zr3    O81       1.04546      .   S
    Zr9    O82       0.63753      .   S
    Zr27   O82       0.63753      .   S
    Zr9    O83       0.63509      .   S
    Zr24   O83       0.63509      .   S
    Zr16   O84       0.63660      .   S
    Zr42   O84       0.63660      .   S
    Zr16   O85       0.63690      .   S
    Zr44   O85       0.63690      .   S
    Zr37   O86       1.05591      .   S
    Zr2    O86       1.05591      .   S
    Zr27   O87       1.03784      .   S
    Zr3    O87       1.03784      .   S
    Zr55   O88       1.03518      .   S
    Zr5    O88       1.03518      .   S
    Zr42   O89       1.04654      .   S
    Zr4    O89       1.04654      .   S
    Zr44   O90       1.03641      .   S
    Zr5    O90       1.03641      .   S
    Zr24   O91       1.03771      .   S
    Zr2    O91       1.03771      .   S
    Zr4    O92       1.03720      .   S
    Zr48   O92       1.03720      .   S
    Zr4    O93       1.05590      .   S
    Zr45   O93       1.05590      .   S
    Zr3    O94       1.03649      .   S
    Zr36   O94       1.03649      .   S
    Zr3    O95       1.03523      .   S
    Zr31   O95       1.03523      .   S
    Zr5    O96       1.03792      .   S
    Zr51   O96       1.03792      .   S
    Zr5    O97       1.04546      .   S
    Zr41   O97       1.04546      .   S
    Zr2    O98       1.04648      .   S
    Zr34   O98       1.04648      .   S
    Zr2    O99       1.02598      .   S
    Zr30   O99       1.02598      .   S
    Zr48   O100      0.63550      .   S
    Zr21   O100      0.63550      .   S
    Zr36   O101      0.63689      .   S
    Zr12   O101      0.63689      .   S
    Zr34   O102      0.63663      .   S
    Zr12   O102      0.63663      .   S
    Zr31   O103      0.63566      .   S
    Zr11   O103      0.63566      .   S
    Zr51   O104      0.63752      .   S
    Zr21   O104      0.63752      .   S
    Zr45   O105      0.63467      .   S
    Zr18   O105      0.63467      .   S
    Zr41   O106      0.63860      .   S
    Zr18   O106      0.63860      .   S
    Zr30   O107      0.63758      .   S
    Zr11   O107      0.63758      .   S
    Zr22   O108      0.63850      .   S
    Zr49   O108      0.63850      .   S
    Zr22   O109      0.63446      .   S
    Zr53   O109      0.63446      .   S
    Zr15   O110      0.63769      .   S
    Zr38   O110      0.63769      .   S
    Zr15   O111      0.63546      .   S
    Zr39   O111      0.63546      .   S
    Zr38   O112      1.02588      .   S
    Zr0    O112      1.02588      .   S
    Zr49   O113      1.04641      .   S
    Zr7    O113      1.04641      .   S
    Zr17   O114      0.63787      .   S
    Zr43   O114      0.63787      .   S
    Zr17   O115      0.63565      .   S
    Zr40   O115      0.63565      .   S
    Zr8    O116      0.63655      .   S
    Zr26   O116      0.63655      .   S
    Zr8    O117      0.63692      .   S
    Zr28   O117      0.63692      .   S
    Zr43   O118      1.03262      .   S
    Zr7    O118      1.03262      .   S
    Zr26   O119      1.04529      .   S
    Zr0    O119      1.04529      .   S
    Zr0    O120      1.43817      .   S
    Zr1    O120      1.43817  1_554   S
    Zr2    O121      1.43639      .   S
    Zr3    O121      1.43639      .   S
    Zr4    O122      1.43638      .   S
    Zr5    O122      1.43638      .   S
    Zr6    O123      1.43818      .   S
    Zr7    O123      1.43818  1_556   S
    N124   O125      2.12750      .   S
    Zr9    O125      2.87421      .   S
    N124   O126      2.12919      .   S
    Zr10   O126      2.87656      .   S
    N127   O128      2.27953      .   S
    Zr2    O128      3.30487      .   S
    N127   O129      2.27860      .   S
    Zr3    O129      3.30285  1_655   S
    N130   O131      2.12869      .   S
    Zr18   O131      2.87601  1_545   S
    N130   O132      2.12810      .   S
    Zr17   O132      2.87506      .   S
    N133   O134      2.28029  1_556   S
    Zr6    O134      3.30593      .   S
    N133   O135      2.28024      .   S
    Zr7    O135      3.30587  1_455   S
    N136   O137      2.27926      .   S
    Zr5    O137      3.30350  1_455   S
    N136   O138      2.27885      .   S
    Zr4    O138      3.30419      .   S
    N139   O140      2.12796      .   S
    Zr11   O140      2.87579      .   S
    N139   O141      2.12770      .   S
    Zr8    O141      2.87450      .   S
    N142   O143      2.28029  1_554   S
    Zr0    O143      3.30583      .   S
    N142   O144      2.28027      .   S
    Zr1    O144      3.30593  1_655   S
    N145   O146      2.12869      .   S
    Zr14   O146      2.87587  1_565   S
    N145   O147      2.12801      .   S
    Zr13   O147      2.87503      .   S
    N148   O149      2.12774      .   S
    Zr12   O149      2.87450  1_565   S
    N148   O150      2.12815      .   S
    Zr15   O150      2.87614      .   S
    N151   O152      2.12778      .   S
    Zr16   O152      2.87459  1_545   S
    N151   O153      2.12811      .   S
    Zr19   O153      2.87612      .   S
    N154   O155      2.12747      .   S
    Zr21   O155      2.87424      .   S
    N154   O156      2.12927      .   S
    Zr22   O156      2.87665      .   S
    N157   O158      2.12825      .   S
    Zr23   O158      2.87611      .   S
    N157   O159      2.12983      .   S
    Zr20   O159      2.87191      .   S
