# CIF file generated by openbabel 2.4.90, see http://openbabel.sf.net
data_I
_chemical_name_common ''
_cell_length_a 13.941
_cell_length_b 20.677
_cell_length_c 22.214
_cell_angle_alpha 89.995
_cell_angle_beta 90.511
_cell_angle_gamma 101.284
_space_group_name_H-M_alt 'P 1'
_space_group_name_Hall 'P 1'
loop_
    _symmetry_equiv_pos_as_xyz
    x,y,z
loop_
    _atom_site_label
    _atom_site_type_symbol
    _atom_site_fract_x
    _atom_site_fract_y
    _atom_site_fract_z
    _atom_site_occupancy
    C0      C    0.66702   0.34186   0.98955   1.000
    C1      C    0.87496   0.36722   0.01032   1.000
    C2      C    0.66706   0.84199   0.51029   1.000
    C3      C    0.87476   0.86717   0.49195   1.000
    C4      C    0.33297   0.15802   0.48970   1.000
    C5      C    0.12526   0.13285   0.50803   1.000
    C6      C    0.33302   0.65816   0.01043   1.000
    C7      C    0.12507   0.63279   0.98966   1.000
    C8      C    0.00137   0.28254   0.06389   1.000
    C9      C    0.63676   0.69992   0.66353   1.000
    C10     C    0.98800   0.61513   0.80534   1.000
    C11     C    0.51399   0.31369   0.08098   1.000
    C12     C    0.17671   0.27136   0.06089   1.000
    C13     C    0.96600   0.52913   0.88417   1.000
    C14     C    0.58616   0.65939   0.40449   1.000
    C15     C    0.56421   0.56967   0.32722   1.000
    C16     C    0.94699   0.76453   0.64074   1.000
    C17     C    0.60111   0.42210   0.15985   1.000
    C18     C    0.89628   0.53243   0.14616   1.000
    C19     C    0.34077   0.32311   0.09423   1.000
    C20     C    0.98167   0.69441   0.72491   1.000
    C21     C    0.87840   0.73441   0.34380   1.000
    C22     C    0.56878   0.49120   0.24534   1.000
    C23     C    0.65287   0.50230   0.86784   1.000
    C24     C    0.05755   0.45408   0.96279   1.000
    C25     C    0.33878   0.38519   0.90792   1.000
    C26     C    0.51393   0.37404   0.90307   1.000
    C27     C    0.23437   0.45023   0.95550   1.000
    C28     C    0.99812   0.78101   0.43887   1.000
    C29     C    0.63653   0.19887   0.83646   1.000
    C30     C    0.98826   0.11847   0.69584   1.000
    C31     C    0.51141   0.81382   0.41832   1.000
    C32     C    0.17377   0.77007   0.44070   1.000
    C33     C    0.96718   0.03179   0.61728   1.000
    C34     C    0.58793   0.15965   0.09413   1.000
    C35     C    0.56530   0.07008   0.17134   1.000
    C36     C    0.94661   0.26701   0.86021   1.000
    C37     C    0.60049   0.92239   0.33906   1.000
    C38     C    0.89598   0.03213   0.35661   1.000
    C39     C    0.33748   0.82277   0.40534   1.000
    C40     C    0.98141   0.19770   0.77591   1.000
    C41     C    0.88015   0.23422   0.15836   1.000
    C42     C    0.56894   0.99173   0.25323   1.000
    C43     C    0.65401   0.00111   0.63248   1.000
    C44     C    0.05952   0.95532   0.53644   1.000
    C45     C    0.34167   0.88621   0.59144   1.000
    C46     C    0.51704   0.87510   0.59610   1.000
    C47     C    0.23677   0.95177   0.54240   1.000
    C48     C    0.00000   0.21901   0.56110   1.000
    C49     C    0.36349   0.80115   0.16353   1.000
    C50     C    0.01177   0.88156   0.30414   1.000
    C51     C    0.48862   0.18621   0.58166   1.000
    C52     C    0.82627   0.22997   0.55923   1.000
    C53     C    0.03285   0.96823   0.38270   1.000
    C54     C    0.41210   0.84038   0.90587   1.000
    C55     C    0.43473   0.92995   0.82866   1.000
    C56     C    0.05341   0.73302   0.13977   1.000
    C57     C    0.39953   0.07765   0.66094   1.000
    C58     C    0.10406   0.96788   0.64330   1.000
    C59     C    0.66255   0.17726   0.59464   1.000
    C60     C    0.01861   0.80233   0.22400   1.000
    C61     C    0.11990   0.76578   0.84162   1.000
    C62     C    0.43108   0.00831   0.74677   1.000
    C63     C    0.34602   0.99890   0.36750   1.000
    C64     C    0.94050   0.04469   0.46356   1.000
    C65     C    0.65836   0.11381   0.40855   1.000
    C66     C    0.48298   0.12492   0.40382   1.000
    C67     C    0.76325   0.04825   0.45751   1.000
    C68     C    0.99868   0.71749   0.93612   1.000
    C69     C    0.36330   0.30008   0.33648   1.000
    C70     C    0.01212   0.38491   0.19467   1.000
    C71     C    0.48606   0.68634   0.91901   1.000
    C72     C    0.82334   0.72867   0.93911   1.000
    C73     C    0.03411   0.47090   0.11584   1.000
    C74     C    0.41387   0.34061   0.59551   1.000
    C75     C    0.43583   0.43033   0.67278   1.000
    C76     C    0.05307   0.23552   0.35925   1.000
    C77     C    0.39893   0.57791   0.84015   1.000
    C78     C    0.10375   0.46759   0.85382   1.000
    C79     C    0.65929   0.67692   0.90570   1.000
    C80     C    0.01842   0.30566   0.27508   1.000
    C81     C    0.12162   0.26561   0.65618   1.000
    C82     C    0.43127   0.50880   0.75466   1.000
    C83     C    0.34724   0.49774   0.13216   1.000
    C84     C    0.94248   0.54593   0.03719   1.000
    C85     C    0.66125   0.61482   0.09207   1.000
    C86     C    0.48610   0.62597   0.09691   1.000
    C87     C    0.76566   0.54978   0.04448   1.000
    C88     C    0.79685   0.45606   0.92661   1.000
    C89     C    0.32404   0.35432   0.00161   1.000
    C90     C    0.83213   0.60796   0.79096   1.000
    C91     C    0.73897   0.57567   0.80987   1.000
    C92     C    0.82814   0.65507   0.74195   1.000
    C93     C    0.22037   0.35968   0.00673   1.000
    C94     C    0.73297   0.70183   0.37881   1.000
    C95     C    0.05614   0.31843   0.04059   1.000
    C96     C    0.70972   0.60169   0.29126   1.000
    C97     C    0.73204   0.65814   0.72387   1.000
    C98     C    0.71131   0.69791   0.67723   1.000
    C99     C    0.79052   0.73589   0.64656   1.000
    C100    C    0.91448   0.59113   0.81847   1.000
    C101    C    0.74520   0.75563   0.42535   1.000
    C102    C    0.79705   0.64870   0.29706   1.000
    C103    C    0.47188   0.32862   0.04375   1.000
    C104    C    0.80433   0.56416   0.21362   1.000
    C105    C    0.15365   0.31289   0.03881   1.000
    C106    C    0.90211   0.54244   0.86270   1.000
    C107    C    0.76643   0.43075   0.09489   1.000
    C108    C    0.64500   0.65549   0.37361   1.000
    C109    C    0.63283   0.60544   0.33030   1.000
    C110    C    0.80850   0.51005   0.88041   1.000
    C111    C    0.75009   0.47267   0.14764   1.000
    C112    C    0.71350   0.55372   0.24291   1.000
    C113    C    0.88674   0.73400   0.66443   1.000
    C114    C    0.65844   0.46213   0.17581   1.000
    C115    C    0.82490   0.52421   0.16743   1.000
    C116    C    0.37462   0.33341   0.05041   1.000
    C117    C    0.90610   0.69437   0.71199   1.000
    C118    C    0.81043   0.69833   0.33977   1.000
    C119    C    0.64005   0.50142   0.22376   1.000
    C120    C    0.77371   0.77827   0.59410   1.000
    C121    C    0.72526   0.52744   0.85388   1.000
    C122    C    0.08670   0.41409   0.98329   1.000
    C123    C    0.37488   0.36954   0.94751   1.000
    C124    C    0.47195   0.36300   0.94423   1.000
    C125    C    0.18513   0.41142   0.97916   1.000
    C126    C    0.79865   0.95643   0.57457   1.000
    C127    C    0.32393   0.85459   0.49788   1.000
    C128    C    0.83235   0.10928   0.70963   1.000
    C129    C    0.73938   0.07575   0.69051   1.000
    C130    C    0.82806   0.15642   0.75851   1.000
    C131    C    0.22005   0.85983   0.49307   1.000
    C132    C    0.73473   0.20185   0.12157   1.000
    C133    C    0.05412   0.81751   0.46115   1.000
    C134    C    0.71069   0.10193   0.20909   1.000
    C135    C    0.73193   0.15835   0.77628   1.000
    C136    C    0.71110   0.19775   0.82296   1.000
    C137    C    0.79022   0.23658   0.85395   1.000
    C138    C    0.91494   0.09347   0.68246   1.000
    C139    C    0.74685   0.25553   0.07505   1.000
    C140    C    0.79824   0.14877   0.20434   1.000
    C141    C    0.47045   0.82882   0.45560   1.000
    C142    C    0.80447   0.06426   0.28812   1.000
    C143    C    0.15177   0.81214   0.46226   1.000
    C144    C    0.90313   0.04443   0.63840   1.000
    C145    C    0.76541   0.93066   0.40620   1.000
    C146    C    0.64661   0.15565   0.12576   1.000
    C147    C    0.63403   0.10573   0.16895   1.000
    C148    C    0.80975   0.01079   0.62051   1.000
    C149    C    0.74956   0.97268   0.35325   1.000
    C150    C    0.71389   0.05396   0.25756   1.000
    C151    C    0.88643   0.23588   0.83628   1.000
    C152    C    0.65809   0.96230   0.32384   1.000
    C153    C    0.82469   0.02408   0.33444   1.000
    C154    C    0.37291   0.83346   0.44905   1.000
    C155    C    0.90587   0.19664   0.78866   1.000
    C156    C    0.81204   0.19827   0.16160   1.000
    C157    C    0.64013   0.00175   0.27571   1.000
    C158    C    0.77339   0.27844   0.90662   1.000
    C159    C    0.72621   0.02719   0.64666   1.000
    C160    C    0.08759   0.91477   0.51647   1.000
    C161    C    0.37655   0.87031   0.55186   1.000
    C162    C    0.47369   0.86378   0.55508   1.000
    C163    C    0.18626   0.91231   0.51991   1.000
    C164    C    0.20139   0.04358   0.42542   1.000
    C165    C    0.67610   0.14544   0.50210   1.000
    C166    C    0.16768   0.89074   0.29035   1.000
    C167    C    0.26065   0.92426   0.30947   1.000
    C168    C    0.17197   0.84359   0.24147   1.000
    C169    C    0.77998   0.14020   0.50691   1.000
    C170    C    0.26531   0.79817   0.87842   1.000
    C171    C    0.94591   0.18251   0.53880   1.000
    C172    C    0.28934   0.89810   0.79090   1.000
    C173    C    0.26810   0.84167   0.22370   1.000
    C174    C    0.28892   0.80226   0.17702   1.000
    C175    C    0.20981   0.76344   0.14603   1.000
    C176    C    0.08508   0.90655   0.31752   1.000
    C177    C    0.25320   0.74449   0.92493   1.000
    C178    C    0.20180   0.85125   0.79565   1.000
    C179    C    0.52958   0.17120   0.54438   1.000
    C180    C    0.19557   0.93576   0.71187   1.000
    C181    C    0.84826   0.18788   0.53772   1.000
    C182    C    0.09690   0.95559   0.36158   1.000
    C183    C    0.23462   0.06936   0.59377   1.000
    C184    C    0.35343   0.84437   0.87424   1.000
    C185    C    0.36600   0.89430   0.83105   1.000
    C186    C    0.19028   0.98923   0.37947   1.000
    C187    C    0.25048   0.02734   0.64674   1.000
    C188    C    0.28614   0.94607   0.74244   1.000
    C189    C    0.11360   0.76415   0.16370   1.000
    C190    C    0.34193   0.03773   0.67610   1.000
    C191    C    0.17534   0.97594   0.66555   1.000
    C192    C    0.62712   0.16657   0.55093   1.000
    C193    C    0.09415   0.80338   0.21132   1.000
    C194    C    0.18801   0.80175   0.83838   1.000
    C195    C    0.35989   0.99828   0.72429   1.000
    C196    C    0.22664   0.72158   0.09336   1.000
    C197    C    0.27382   0.97283   0.35333   1.000
    C198    C    0.91243   0.08525   0.48352   1.000
    C199    C    0.62348   0.12971   0.44812   1.000
    C200    C    0.52633   0.13623   0.44490   1.000
    C201    C    0.81377   0.08771   0.48008   1.000
    C202    C    0.20323   0.54397   0.07339   1.000
    C203    C    0.67600   0.64571   0.99837   1.000
    C204    C    0.16798   0.39208   0.20905   1.000
    C205    C    0.26115   0.42438   0.19014   1.000
    C206    C    0.17196   0.34497   0.25800   1.000
    C207    C    0.77967   0.64034   0.99320   1.000
    C208    C    0.26706   0.29818   0.62118   1.000
    C209    C    0.94391   0.68159   0.95941   1.000
    C210    C    0.29032   0.39832   0.70873   1.000
    C211    C    0.26806   0.34189   0.27613   1.000
    C212    C    0.28876   0.30211   0.32277   1.000
    C213    C    0.20954   0.26414   0.35344   1.000
    C214    C    0.08564   0.40891   0.18150   1.000
    C215    C    0.25483   0.24439   0.57463   1.000
    C216    C    0.20298   0.35131   0.70290   1.000
    C217    C    0.52817   0.67141   0.95623   1.000
    C218    C    0.19570   0.43585   0.78636   1.000
    C219    C    0.84640   0.68714   0.96119   1.000
    C220    C    0.09800   0.45759   0.13726   1.000
    C221    C    0.23360   0.56927   0.90510   1.000
    C222    C    0.35503   0.34452   0.62639   1.000
    C223    C    0.36721   0.39456   0.66961   1.000
    C224    C    0.19161   0.48999   0.11900   1.000
    C225    C    0.24995   0.52734   0.85235   1.000
    C226    C    0.28654   0.44629   0.75709   1.000
    C227    C    0.11332   0.26604   0.33556   1.000
    C228    C    0.34160   0.53788   0.82418   1.000
    C229    C    0.17513   0.47580   0.83255   1.000
    C230    C    0.62543   0.66662   0.94958   1.000
    C231    C    0.09398   0.30568   0.28800   1.000
    C232    C    0.18960   0.30168   0.66021   1.000
    C233    C    0.36000   0.49859   0.77620   1.000
    C234    C    0.22633   0.22174   0.40590   1.000
    C235    C    0.27485   0.47261   0.14613   1.000
    C236    C    0.91333   0.58592   0.01670   1.000
    C237    C    0.62515   0.63048   0.05247   1.000
    C238    C    0.52809   0.63702   0.05570   1.000
    C239    C    0.81490   0.58859   0.02083   1.000
    C240    C    0.64545   0.60402   0.76820   1.000
    C241    C    0.88404   0.63566   0.24244   1.000
    C242    C    0.64556   0.10302   0.73185   1.000
    C243    C    0.88449   0.13577   0.26050   1.000
    C244    C    0.35447   0.89700   0.26814   1.000
    C245    C    0.11555   0.86425   0.73948   1.000
    C246    C    0.35467   0.39598   0.23179   1.000
    C247    C    0.11599   0.36435   0.75755   1.000
    C248    C    0.02272   0.36802   0.01309   1.000
    C249    C    0.51998   0.34279   0.99140   1.000
    C250    C    0.02212   0.86778   0.48800   1.000
    C251    C    0.52020   0.84334   0.50781   1.000
    C252    C    0.97791   0.13223   0.51193   1.000
    C253    C    0.47983   0.15668   0.49217   1.000
    C254    C    0.97732   0.63200   0.98690   1.000
    C255    C    0.48007   0.65724   0.00851   1.000
    C256    C    0.67044   0.76095   0.45580   1.000
    C257    C    0.85446   0.43344   0.07804   1.000
    C258    C    0.70991   0.42885   0.94050   1.000
    C259    C    0.83010   0.79197   0.42995   1.000
    C260    C    0.87514   0.44173   0.94803   1.000
    C261    C    0.69042   0.39685   0.07036   1.000
    C262    C    0.68753   0.78894   0.58578   1.000
    C263    C    0.84790   0.79998   0.56184   1.000
    C264    C    0.97089   0.61948   0.27079   1.000
    C265    C    0.59150   0.64121   0.80713   1.000
    C266    C    0.58943   0.55075   0.73163   1.000
    C267    C    0.89555   0.68820   0.19748   1.000
    C268    C    0.67168   0.26109   0.04410   1.000
    C269    C    0.85329   0.93349   0.42443   1.000
    C270    C    0.71182   0.92916   0.55948   1.000
    C271    C    0.83195   0.29159   0.07093   1.000
    C272    C    0.87707   0.94193   0.55443   1.000
    C273    C    0.68912   0.89677   0.42965   1.000
    C274    C    0.68711   0.28887   0.91420   1.000
    C275    C    0.84752   0.30002   0.93976   1.000
    C276    C    0.97187   0.11953   0.23392   1.000
    C277    C    0.58927   0.13895   0.69260   1.000
    C278    C    0.59170   0.04956   0.76850   1.000
    C279    C    0.89515   0.18839   0.30544   1.000
    C280    C    0.32837   0.73893   0.95581   1.000
    C281    C    0.14674   0.06653   0.57555   1.000
    C282    C    0.28821   0.07085   0.44050   1.000
    C283    C    0.16810   0.70842   0.92905   1.000
    C284    C    0.12296   0.05809   0.44556   1.000
    C285    C    0.31092   0.10324   0.57034   1.000
    C286    C    0.31291   0.71116   0.08578   1.000
    C287    C    0.15250   0.70000   0.06023   1.000
    C288    C    0.02817   0.88048   0.76600   1.000
    C289    C    0.41077   0.86107   0.30735   1.000
    C290    C    0.40833   0.95045   0.23148   1.000
    C291    C    0.10490   0.81163   0.69454   1.000
    C292    C    0.32958   0.23906   0.54411   1.000
    C293    C    0.14557   0.56657   0.92195   1.000
    C294    C    0.29017   0.57120   0.05949   1.000
    C295    C    0.16993   0.20805   0.57004   1.000
    C296    C    0.12493   0.55828   0.05196   1.000
    C297    C    0.30961   0.60316   0.92963   1.000
    C298    C    0.31251   0.21107   0.41421   1.000
    C299    C    0.15214   0.20004   0.43815   1.000
    C300    C    0.02914   0.38053   0.72919   1.000
    C301    C    0.40852   0.35875   0.19284   1.000
    C302    C    0.41082   0.44922   0.26834   1.000
    C303    C    0.10448   0.31182   0.80251   1.000
    O304    O    0.27221   0.35700   0.00417   1.000
    O305    O    0.34933   0.34386   0.02601   1.000
    O306    O    0.34946   0.36193   0.97456   1.000
    O307    O    0.18701   0.33628   0.02277   1.000
    O308    O    0.20275   0.38555   0.99295   1.000
    O309    O    0.40654   0.65770   0.00947   1.000
    O310    O    0.50408   0.64713   0.03211   1.000
    O311    O    0.50412   0.66432   0.98237   1.000
    O312    O    0.94884   0.36762   0.01171   1.000
    O313    O    0.85346   0.32941   0.04063   1.000
    O314    O    0.86471   0.40033   0.04418   1.000
    O315    O    0.86124   0.33362   0.97504   1.000
    O316    O    0.87505   0.40448   0.97918   1.000
    O317    O    0.31159   0.61468   0.03496   1.000
    O318    O    0.32297   0.68466   0.04811   1.000
    O319    O    0.32131   0.63066   0.97003   1.000
    O320    O    0.33069   0.69854   0.98312   1.000
    O321    O    0.03943   0.34323   0.02684   1.000
    O322    O    0.05471   0.39106   0.99819   1.000
    O323    O    0.86412   0.58726   0.01877   1.000
    O324    O    0.92791   0.56593   0.02695   1.000
    O325    O    0.94533   0.60896   0.00180   1.000
    O326    O    0.79028   0.56919   0.03266   1.000
    O327    O    0.79729   0.61447   0.00702   1.000
    O328    O    0.10490   0.31566   0.03970   1.000
    O329    O    0.16518   0.29212   0.04985   1.000
    O330    O    0.02876   0.30048   0.05224   1.000
    O331    O    0.42325   0.33101   0.04708   1.000
    O332    O    0.49294   0.32116   0.06237   1.000
    O333    O    0.49593   0.33570   0.01758   1.000
    O334    O    0.70927   0.25831   0.05958   1.000
    O335    O    0.66935   0.30147   0.01683   1.000
    O336    O    0.35769   0.32826   0.07232   1.000
    O337    O    0.16408   0.55113   0.06268   1.000
    O338    O    0.12500   0.59554   0.02081   1.000
    O339    O    0.57662   0.63375   0.05409   1.000
    O340    O    0.64320   0.62265   0.07227   1.000
    O341    O    0.65058   0.63809   0.02542   1.000
    O342    O    0.50710   0.63150   0.07631   1.000
    O343    O    0.24670   0.55758   0.06644   1.000
    O344    O    0.18957   0.71079   0.07680   1.000
    O345    O    0.13879   0.66639   0.02495   1.000
    O346    O    0.72843   0.41380   0.08263   1.000
    O347    O    0.67872   0.36936   0.02996   1.000
    O348    O    0.78940   0.27356   0.07299   1.000
    O349    O    0.19742   0.51698   0.09620   1.000
    O350    O    0.74079   0.22869   0.09831   1.000
    O351    O    0.81045   0.43210   0.08647   1.000
    O352    O    0.26978   0.71637   0.08957   1.000
    O353    O    0.21822   0.74251   0.11970   1.000
    O354    O    0.61727   0.15765   0.10995   1.000
    O355    O    0.75826   0.45171   0.12127   1.000
    O356    O    0.06605   0.46425   0.12655   1.000
    O357    O    0.14480   0.47379   0.12813   1.000
    O358    O    0.23323   0.48130   0.13257   1.000
    O359    O    0.69067   0.17875   0.12367   1.000
    O360    O    0.77338   0.20006   0.14159   1.000
    O361    O    0.64032   0.13069   0.14736   1.000
    O362    O    0.31105   0.48517   0.13915   1.000
    O363    O    0.09182   0.43325   0.15938   1.000
    O364    O    0.08350   0.74858   0.15174   1.000
    O365    O    0.16170   0.76380   0.15487   1.000
    O366    O    0.24936   0.78285   0.16153   1.000
    O367    O    0.26800   0.44849   0.16814   1.000
    O368    O    0.86059   0.52832   0.15680   1.000
    O369    O    0.78749   0.49844   0.15754   1.000
    O370    O    0.70426   0.46740   0.16173   1.000
    O371    O    0.84610   0.21624   0.15998   1.000
    O372    O    0.62978   0.44211   0.16783   1.000
    O373    O    0.80514   0.17352   0.18297   1.000
    O374    O    0.32621   0.80171   0.17028   1.000
    O375    O    0.10388   0.78376   0.18751   1.000
    O376    O    0.81462   0.54419   0.19053   1.000
    O377    O    0.59966   0.08791   0.17015   1.000
    O378    O    0.67236   0.10383   0.18902   1.000
    O379    O    0.64924   0.48177   0.19979   1.000
    O380    O    0.27851   0.82196   0.20036   1.000
    O381    O    0.04888   0.39691   0.18809   1.000
    O382    O    0.12681   0.40050   0.19528   1.000
    O383    O    0.21457   0.40823   0.19960   1.000
    O384    O    0.30791   0.41018   0.21097   1.000
    O385    O    0.38159   0.37736   0.21232   1.000
    O386    O    0.88979   0.66193   0.21996   1.000
    O387    O    0.75447   0.12535   0.20672   1.000
    O388    O    0.84137   0.14227   0.23242   1.000
    O389    O    0.16997   0.36853   0.23353   1.000
    O390    O    0.71229   0.07794   0.23333   1.000
    O391    O    0.05638   0.80285   0.21766   1.000
    O392    O    0.13306   0.82349   0.22640   1.000
    O393    O    0.84419   0.59991   0.22803   1.000
    O394    O    0.75892   0.55894   0.22827   1.000
    O395    O    0.22003   0.84263   0.23259   1.000
    O396    O    0.31129   0.86933   0.24592   1.000
    O397    O    0.67677   0.52757   0.23334   1.000
    O398    O    0.60441   0.49631   0.23455   1.000
    O399    O    0.38140   0.92373   0.24981   1.000
    O400    O    0.38274   0.42260   0.25007   1.000
    O401    O    0.31136   0.36894   0.25396   1.000
    O402    O    0.92818   0.12765   0.24721   1.000
    O403    O    0.16982   0.86717   0.26591   1.000
    O404    O    0.92747   0.62757   0.25662   1.000
    O405    O    0.84054   0.64218   0.26975   1.000
    O406    O    0.71161   0.57770   0.26709   1.000
    O407    O    0.60454   0.99674   0.26447   1.000
    O408    O    0.67701   0.02786   0.26664   1.000
    O409    O    0.75918   0.05911   0.27284   1.000
    O410    O    0.22001   0.34343   0.26707   1.000
    O411    O    0.13297   0.32533   0.27300   1.000
    O412    O    0.84448   0.10002   0.27431   1.000
    O413    O    0.88982   0.16208   0.28297   1.000
    O414    O    0.38262   0.87903   0.28775   1.000
    O415    O    0.30756   0.91063   0.28881   1.000
    O416    O    0.05620   0.30567   0.28154   1.000
    O417    O    0.64911   0.98203   0.29978   1.000
    O418    O    0.27841   0.32200   0.29945   1.000
    O419    O    0.10365   0.28586   0.31178   1.000
    O420    O    0.81458   0.04417   0.31128   1.000
    O421    O    0.21416   0.90750   0.29991   1.000
    O422    O    0.12638   0.89864   0.30394   1.000
    O423    O    0.75339   0.62519   0.29416   1.000
    O424    O    0.67127   0.60357   0.31078   1.000
    O425    O    0.80374   0.67352   0.31842   1.000
    O426    O    0.04842   0.89405   0.31083   1.000
    O427    O    0.26723   0.94855   0.33140   1.000
    O428    O    0.09099   0.93107   0.33955   1.000
    O429    O    0.32603   0.30109   0.32963   1.000
    O430    O    0.24915   0.28312   0.33811   1.000
    O431    O    0.62929   0.94234   0.33145   1.000
    O432    O    0.70382   0.96749   0.33855   1.000
    O433    O    0.59852   0.58755   0.32876   1.000
    O434    O    0.63892   0.63046   0.35196   1.000
    O435    O    0.78713   0.99838   0.34385   1.000
    O436    O    0.86034   0.02811   0.34553   1.000
    O437    O    0.16143   0.26509   0.34450   1.000
    O438    O    0.08319   0.25078   0.34741   1.000
    O439    O    0.84441   0.71637   0.34179   1.000
    O440    O    0.77170   0.70008   0.35929   1.000
    O441    O    0.75749   0.95167   0.37973   1.000
    O442    O    0.30992   0.98587   0.36042   1.000
    O443    O    0.23205   0.98103   0.36640   1.000
    O444    O    0.21793   0.24294   0.37967   1.000
    O445    O    0.14359   0.97241   0.37052   1.000
    O446    O    0.06487   0.96191   0.37214   1.000
    O447    O    0.68899   0.67866   0.37621   1.000
    O448    O    0.61558   0.65744   0.38905   1.000
    O449    O    0.73908   0.72873   0.40208   1.000
    O450    O    0.19583   0.01640   0.40245   1.000
    O451    O    0.50466   0.13058   0.42436   1.000
    O452    O    0.35520   0.82811   0.42720   1.000
    O453    O    0.26942   0.21641   0.41006   1.000
    O454    O    0.18923   0.21089   0.42203   1.000
    O455    O    0.80935   0.93207   0.41532   1.000
    O456    O    0.72727   0.91372   0.41793   1.000
    O457    O    0.64092   0.12176   0.42834   1.000
    O458    O    0.32274   0.18455   0.45196   1.000
    O459    O    0.49093   0.82132   0.43696   1.000
    O460    O    0.86403   0.90033   0.45819   1.000
    O461    O    0.78765   0.77380   0.42765   1.000
    O462    O    0.70782   0.75829   0.44058   1.000
    O463    O    0.24480   0.05721   0.43296   1.000
    O464    O    0.16218   0.05083   0.43549   1.000
    O465    O    0.67809   0.86938   0.46997   1.000
    O466    O    0.85243   0.82957   0.46095   1.000
    O467    O    0.13870   0.16644   0.47309   1.000
    O468    O    0.02612   0.79926   0.45001   1.000
    O469    O    0.31059   0.11443   0.46510   1.000
    O470    O    0.16277   0.79111   0.45148   1.000
    O471    O    0.57490   0.13297   0.44651   1.000
    O472    O    0.50308   0.14646   0.46854   1.000
    O473    O    0.12411   0.09547   0.47680   1.000
    O474    O    0.64979   0.13757   0.47511   1.000
    O475    O    0.42168   0.83114   0.45233   1.000
    O476    O    0.34842   0.84402   0.47347   1.000
    O477    O    0.49532   0.83608   0.48171   1.000
    O478    O    0.66875   0.80147   0.48305   1.000
    O479    O    0.78851   0.06798   0.46880   1.000
    O480    O    0.10295   0.81483   0.46171   1.000
    O481    O    0.03812   0.84265   0.47458   1.000
    O482    O    0.18591   0.83599   0.47767   1.000
    O483    O    0.92646   0.06497   0.47354   1.000
    O484    O    0.86310   0.08648   0.48180   1.000
    O485    O    0.79687   0.11395   0.49350   1.000
    O486    O    0.94517   0.10874   0.49773   1.000
    O487    O    0.94844   0.86748   0.48998   1.000
    O488    O    0.05485   0.89128   0.50224   1.000
    O489    O    0.40640   0.15735   0.49094   1.000
    O490    O    0.33128   0.19854   0.51691   1.000
    O491    O    0.32194   0.13063   0.53002   1.000
    O492    O    0.87592   0.90455   0.52319   1.000
    O493    O    0.86133   0.83357   0.52690   1.000
    O494    O    0.50471   0.16394   0.51828   1.000
    O495    O    0.27199   0.85721   0.49548   1.000
    O496    O    0.20315   0.88607   0.50649   1.000
    O497    O    0.35024   0.86245   0.52487   1.000
    O498    O    0.72804   0.14282   0.50451   1.000
    O499    O    0.65161   0.15600   0.52652   1.000
    O500    O    0.81412   0.16404   0.52232   1.000
    O501    O    0.59363   0.84267   0.50905   1.000
    O502    O    0.49695   0.85356   0.53145   1.000
    O503    O    0.05159   0.13254   0.50998   1.000
    O504    O    0.14760   0.17045   0.53904   1.000
    O505    O    0.13600   0.09969   0.54179   1.000
    O506    O    0.68944   0.88558   0.53489   1.000
    O507    O    0.67729   0.81546   0.54804   1.000
    O508    O    0.96191   0.15737   0.52537   1.000
    O509    O    0.13692   0.91354   0.51819   1.000
    O510    O    0.07356   0.93504   0.52646   1.000
    O511    O    0.21151   0.93204   0.53116   1.000
    O512    O    0.89708   0.18520   0.53826   1.000
    O513    O    0.83726   0.20892   0.54848   1.000
    O514    O    0.97295   0.20076   0.54995   1.000
    O515    O    0.29221   0.24172   0.55937   1.000
    O516    O    0.57835   0.16889   0.54766   1.000
    O517    O    0.50910   0.17871   0.56302   1.000
    O518    O    0.64484   0.17192   0.57279   1.000
    O519    O    0.42512   0.86705   0.55347   1.000
    O520    O    0.35911   0.87826   0.57165   1.000
    O521    O    0.83786   0.94918   0.56450   1.000
    O522    O    0.49537   0.86944   0.57559   1.000
    O523    O    0.75523   0.94280   0.56703   1.000
    O524    O    0.81080   0.78913   0.57797   1.000
    O525    O    0.21238   0.22622   0.57234   1.000
    O526    O    0.27277   0.08630   0.58206   1.000
    O527    O    0.80420   0.98361   0.59754   1.000
    O528    O    0.26094   0.27128   0.59791   1.000
    O529    O    0.19068   0.06795   0.58466   1.000
    O530    O    0.73062   0.78361   0.58994   1.000
    O531    O    0.24255   0.04835   0.62026   1.000
    O532    O    0.78211   0.75708   0.62033   1.000
    O533    O    0.38445   0.34256   0.61095   1.000
    O534    O    0.93516   0.03811   0.62784   1.000
    O535    O    0.85644   0.02761   0.62946   1.000
    O536    O    0.76798   0.01899   0.63359   1.000
    O537    O    0.31105   0.32135   0.62379   1.000
    O538    O    0.22833   0.29993   0.64070   1.000
    O539    O    0.36112   0.36954   0.64800   1.000
    O540    O    0.69011   0.01415   0.63957   1.000
    O541    O    0.90904   0.06895   0.66043   1.000
    O542    O    0.91687   0.74926   0.65259   1.000
    O543    O    0.13970   0.97191   0.65443   1.000
    O544    O    0.83863   0.73494   0.65550   1.000
    O545    O    0.75092   0.71690   0.66190   1.000
    O546    O    0.73280   0.05147   0.66859   1.000
    O547    O    0.21291   0.00164   0.65615   1.000
    O548    O    0.29620   0.03254   0.66142   1.000
    O549    O    0.15561   0.28365   0.65820   1.000
    O550    O    0.19629   0.32650   0.68156   1.000
    O551    O    0.37073   0.05769   0.66852   1.000
    O552    O    0.67404   0.69892   0.67038   1.000
    O553    O    0.89642   0.71418   0.68821   1.000
    O554    O    0.18546   0.95585   0.68871   1.000
    O555    O    0.40152   0.41245   0.67120   1.000
    O556    O    0.32876   0.39644   0.68917   1.000
    O557    O    0.35091   0.01800   0.70020   1.000
    O558    O    0.72167   0.67802   0.70055   1.000
    O559    O    0.95160   0.10597   0.68915   1.000
    O560    O    0.87365   0.10138   0.69605   1.000
    O561    O    0.78587   0.09252   0.70007   1.000
    O562    O    0.69247   0.08939   0.71118   1.000
    O563    O    0.61741   0.12098   0.71223   1.000
    O564    O    0.11022   0.83794   0.71701   1.000
    O565    O    0.24665   0.37482   0.70582   1.000
    O566    O    0.15949   0.35783   0.73023   1.000
    O567    O    0.28843   0.42231   0.73291   1.000
    O568    O    0.83020   0.13285   0.73407   1.000
    O569    O    0.15556   0.90000   0.72568   1.000
    O570    O    0.24086   0.94091   0.72716   1.000
    O571    O    0.94389   0.69439   0.71845   1.000
    O572    O    0.86712   0.67472   0.72697   1.000
    O573    O    0.78009   0.65660   0.73291   1.000
    O574    O    0.68874   0.63108   0.74604   1.000
    O575    O    0.32302   0.97217   0.73337   1.000
    O576    O    0.39549   0.00329   0.73553   1.000
    O577    O    0.07256   0.37244   0.74337   1.000
    O578    O    0.61744   0.57738   0.74992   1.000
    O579    O    0.61863   0.07629   0.75018   1.000
    O580    O    0.68874   0.13068   0.75407   1.000
    O581    O    0.07186   0.87236   0.75274   1.000
    O582    O    0.15868   0.85775   0.76757   1.000
    O583    O    0.83014   0.63152   0.76646   1.000
    O584    O    0.28774   0.92208   0.76667   1.000
    O585    O    0.39563   0.50369   0.76543   1.000
    O586    O    0.32327   0.47244   0.76665   1.000
    O587    O    0.24112   0.44107   0.77173   1.000
    O588    O    0.15585   0.40010   0.77196   1.000
    O589    O    0.11024   0.33809   0.78003   1.000
    O590    O    0.77999   0.15739   0.76740   1.000
    O591    O    0.86697   0.17653   0.77359   1.000
    O592    O    0.61847   0.62261   0.78767   1.000
    O593    O    0.69221   0.58985   0.78904   1.000
    O594    O    0.94364   0.19717   0.78229   1.000
    O595    O    0.35080   0.51824   0.80019   1.000
    O596    O    0.72152   0.17805   0.79962   1.000
    O597    O    0.18541   0.45583   0.80946   1.000
    O598    O    0.89615   0.21626   0.81247   1.000
    O599    O    0.24557   0.87467   0.79328   1.000
    O600    O    0.32767   0.89620   0.81098   1.000
    O601    O    0.78555   0.59182   0.80042   1.000
    O602    O    0.87331   0.59955   0.80472   1.000
    O603    O    0.19491   0.82650   0.81702   1.000
    O604    O    0.95124   0.60313   0.81191   1.000
    O605    O    0.73211   0.55155   0.83188   1.000
    O606    O    0.90829   0.56679   0.84059   1.000
    O607    O    0.67382   0.19831   0.82971   1.000
    O608    O    0.75066   0.21717   0.83846   1.000
    O609    O    0.37027   0.55789   0.83217   1.000
    O610    O    0.29577   0.53261   0.83827   1.000
    O611    O    0.40036   0.91213   0.82986   1.000
    O612    O    0.35971   0.86934   0.85265   1.000
    O613    O    0.21254   0.50157   0.84245   1.000
    O614    O    0.13944   0.47170   0.84319   1.000
    O615    O    0.83832   0.23623   0.84512   1.000
    O616    O    0.91652   0.25144   0.84825   1.000
    O617    O    0.15395   0.78376   0.84000   1.000
    O618    O    0.22666   0.79996   0.85840   1.000
    O619    O    0.24177   0.54830   0.87873   1.000
    O620    O    0.68906   0.51487   0.86086   1.000
    O621    O    0.76688   0.51875   0.86715   1.000
    O622    O    0.78180   0.25751   0.88029   1.000
    O623    O    0.85530   0.52625   0.87156   1.000
    O624    O    0.93405   0.53579   0.87344   1.000
    O625    O    0.30937   0.82127   0.87633   1.000
    O626    O    0.38276   0.84238   0.89006   1.000
    O627    O    0.25925   0.77133   0.90168   1.000
    O628    O    0.80267   0.48306   0.90351   1.000
    O629    O    0.49294   0.36852   0.92365   1.000
    O630    O    0.18958   0.56792   0.91353   1.000
    O631    O    0.27160   0.58621   0.91737   1.000
    O632    O    0.64236   0.67177   0.92764   1.000
    O633    O    0.73025   0.28365   0.91041   1.000
    O634    O    0.81045   0.28923   0.92319   1.000
    O635    O    0.35683   0.37736   0.92772   1.000
    O636    O    0.67706   0.31537   0.95188   1.000
    O637    O    0.50711   0.67888   0.93762   1.000
    O638    O    0.13532   0.59968   0.95581   1.000
    O639    O    0.21065   0.72645   0.92699   1.000
    O640    O    0.29078   0.74171   0.94037   1.000
    O641    O    0.75338   0.44246   0.93356   1.000
    O642    O    0.83599   0.44890   0.93732   1.000
    O643    O    0.14658   0.67061   0.95936   1.000
    O644    O    0.97130   0.69954   0.94777   1.000
    O645    O    0.83487   0.70791   0.95015   1.000
    O646    O    0.68846   0.38536   0.96503   1.000
    O647    O    0.42341   0.36627   0.94587   1.000
    O648    O    0.49596   0.35289   0.96782   1.000
    O649    O    0.57680   0.66901   0.95291   1.000
    O650    O    0.65071   0.65616   0.97398   1.000
    O651    O    0.20975   0.43083   0.96733   1.000
    O652    O    0.89515   0.68436   0.96030   1.000
    O653    O    0.96061   0.65679   0.97316   1.000
    O654    O    0.81303   0.66374   0.97720   1.000
    O655    O    0.07213   0.43409   0.97304   1.000
    O656    O    0.13592   0.41276   0.98123   1.000
    O657    O    0.05119   0.63239   0.98828   1.000
    O658    O    0.59350   0.34232   0.99048   1.000
    O659    O    0.72784   0.64302   0.99579   1.000
    O660    O    0.77099   0.35454   0.99994   1.000
    O661    O    0.77091   0.85458   0.50112   1.000
    O662    O    0.22912   0.14544   0.49887   1.000
    O663    O    0.22904   0.64547   0.00005   1.000
loop_
    _geom_bond_atom_site_label_1
    _geom_bond_atom_site_label_2
    _geom_bond_distance
    _geom_bond_site_symmetry_2
    _ccdc_geom_bond_type
    C89    O304      0.73821      .   S
    C93    O304      0.73821      .   S
    C89    O305      0.70085      .   S
    C116   O305      0.70085      .   S
    C89    O306      0.70240  1_554   S
    C123   O306      0.70240      .   S
    C93    O307      0.70153      .   S
    C105   O307      0.70153      .   S
    C93    O308      0.70024  1_554   S
    C125   O308      0.70024      .   S
    C255   O309      1.02731      .   S
    C6     O309      1.02731      .   S
    C255   O310      0.67431      .   S
    C238   O310      0.67431      .   S
    C255   O311      0.67476  1_554   S
    C217   O311      0.67476      .   S
    C1     O312      1.02856      .   S
    C248   O312      1.02856  1_455   S
    C1     O313      1.03259      .   S
    C271   O313      1.03259      .   S
    C1     O314      1.04652      .   S
    C257   O314      1.04652      .   S
    C1     O315      1.03873  1_554   S
    C275   O315      1.03873      .   S
    C1     O316      1.03517  1_554   S
    C260   O316      1.03517      .   S
    C6     O317      1.04507      .   S
    C294   O317      1.04507      .   S
    C6     O318      1.02591      .   S
    C286   O318      1.02591      .   S
    C6     O319      1.05666  1_554   S
    C297   O319      1.05666      .   S
    C6     O320      1.03759  1_554   S
    C280   O320      1.03759      .   S
    C248   O321      0.67516      .   S
    C95    O321      0.67516      .   S
    C248   O322      0.67437  1_554   S
    C122   O322      0.67437      .   S
    C236   O323      0.69397      .   S
    C239   O323      0.69397      .   S
    C236   O324      0.54411      .   S
    C84    O324      0.54411      .   S
    C236   O325      0.67441      .   S
    C254   O325      0.67441  1_556   S
    C239   O326      0.54361      .   S
    C87    O326      0.54361      .   S
    C239   O327      0.70054      .   S
    C207   O327      0.70054  1_556   S
    C105   O328      0.69363      .   S
    C95    O328      0.69363      .   S
    C105   O329      0.54464      .   S
    C12    O329      0.54464      .   S
    C95    O330      0.54475      .   S
    C8     O330      0.54475      .   S
    C103   O331      0.69396      .   S
    C116   O331      0.69396      .   S
    C103   O332      0.54456      .   S
    C11    O332      0.54456      .   S
    C103   O333      0.67541      .   S
    C249   O333      0.67541  1_556   S
    C268   O334      0.63606      .   S
    C139   O334      0.63606      .   S
    C268   O335      1.03719      .   S
    C0     O335      1.03719  1_556   S
    C116   O336      0.54415      .   S
    C19    O336      0.54415      .   S
    C296   O337      0.63695      .   S
    C202   O337      0.63695      .   S
    C296   O338      1.03527      .   S
    C7     O338      1.03527  1_556   S
    C237   O339      0.69425      .   S
    C238   O339      0.69425      .   S
    C237   O340      0.54492      .   S
    C85    O340      0.54492      .   S
    C237   O341      0.70243      .   S
    C203   O341      0.70243  1_556   S
    C238   O342      0.54543      .   S
    C86    O342      0.54543      .   S
    C294   O343      0.63659      .   S
    C202   O343      0.63659      .   S
    C287   O344      0.63540      .   S
    C196   O344      0.63540      .   S
    C287   O345      1.03884      .   S
    C7     O345      1.03884  1_556   S
    C261   O346      0.63448      .   S
    C107   O346      0.63448      .   S
    C261   O347      1.05670      .   S
    C0     O347      1.05670  1_556   S
    C271   O348      0.63788      .   S
    C139   O348      0.63788      .   S
    C202   O349      0.74677      .   S
    C224   O349      0.74677      .   S
    C139   O350      0.75132      .   S
    C132   O350      0.75132      .   S
    C257   O351      0.63849      .   S
    C107   O351      0.63849      .   S
    C286   O352      0.63768      .   S
    C196   O352      0.63768      .   S
    C196   O353      0.75130      .   S
    C175   O353      0.75130      .   S
    C34    O354      0.54448      .   S
    C146   O354      0.54448      .   S
    C107   O355      0.75147      .   S
    C111   O355      0.75147      .   S
    C73    O356      0.54403      .   S
    C220   O356      0.54403      .   S
    C224   O357      0.70418      .   S
    C220   O357      0.70418      .   S
    C224   O358      0.70531      .   S
    C235   O358      0.70531      .   S
    C132   O359      0.70235      .   S
    C146   O359      0.70235      .   S
    C132   O360      0.70210      .   S
    C156   O360      0.70210      .   S
    C146   O361      0.69798      .   S
    C147   O361      0.69798      .   S
    C83    O362      0.54434      .   S
    C235   O362      0.54434      .   S
    C220   O363      0.69705      .   S
    C214   O363      0.69705      .   S
    C56    O364      0.54352      .   S
    C189   O364      0.54352      .   S
    C175   O365      0.70182      .   S
    C189   O365      0.70182      .   S
    C175   O366      0.70264      .   S
    C174   O366      0.70264      .   S
    C235   O367      0.69198      .   S
    C205   O367      0.69198      .   S
    C18    O368      0.54419      .   S
    C115   O368      0.54419      .   S
    C111   O369      0.70244      .   S
    C115   O369      0.70244      .   S
    C111   O370      0.70298      .   S
    C114   O370      0.70298      .   S
    C41    O371      0.54420      .   S
    C156   O371      0.54420      .   S
    C17    O372      0.54442      .   S
    C114   O372      0.54442      .   S
    C156   O373      0.69137      .   S
    C140   O373      0.69137      .   S
    C49    O374      0.54450      .   S
    C174   O374      0.54450      .   S
    C189   O375      0.69676      .   S
    C193   O375      0.69676      .   S
    C115   O376      0.69201      .   S
    C104   O376      0.69201      .   S
    C147   O377      0.54518      .   S
    C35    O377      0.54518      .   S
    C147   O378      0.69987      .   S
    C134   O378      0.69987      .   S
    C114   O379      0.69765      .   S
    C119   O379      0.69765      .   S
    C174   O380      0.69307      .   S
    C173   O380      0.69307      .   S
    C214   O381      0.54513      .   S
    C70    O381      0.54513      .   S
    C214   O382      0.69952      .   S
    C204   O382      0.69952      .   S
    C205   O383      0.70350      .   S
    C204   O383      0.70350      .   S
    C205   O384      0.89142      .   S
    C246   O384      0.89142      .   S
    C301   O385      0.73188      .   S
    C246   O385      0.73188      .   S
    C267   O386      0.73104      .   S
    C241   O386      0.73104      .   S
    C140   O387      0.70328      .   S
    C134   O387      0.70328      .   S
    C140   O388      0.89081      .   S
    C243   O388      0.89081      .   S
    C204   O389      0.73389      .   S
    C206   O389      0.73389      .   S
    C134   O390      0.73509      .   S
    C150   O390      0.73509      .   S
    C193   O391      0.54432      .   S
    C60    O391      0.54432      .   S
    C193   O392      0.69838      .   S
    C168   O392      0.69838      .   S
    C104   O393      0.89091      .   S
    C241   O393      0.89091      .   S
    C104   O394      0.70380      .   S
    C112   O394      0.70380      .   S
    C173   O395      0.70424      .   S
    C168   O395      0.70424      .   S
    C173   O396      0.89068      .   S
    C244   O396      0.89068      .   S
    C119   O397      0.69963      .   S
    C112   O397      0.69963      .   S
    C119   O398      0.54497      .   S
    C22    O398      0.54497      .   S
    C290   O399      0.73052      .   S
    C244   O399      0.73052      .   S
    C246   O400      0.73065      .   S
    C302   O400      0.73065      .   S
    C246   O401      0.89038      .   S
    C211   O401      0.89038      .   S
    C276   O402      0.72772      .   S
    C243   O402      0.72772      .   S
    C168   O403      0.73432      .   S
    C166   O403      0.73432      .   S
    C241   O404      0.72794      .   S
    C264   O404      0.72794      .   S
    C241   O405      0.89017      .   S
    C102   O405      0.89017      .   S
    C112   O406      0.73514      .   S
    C96    O406      0.73514      .   S
    C42    O407      0.54497      .   S
    C157   O407      0.54497  1_545   S
    C150   O408      0.69963      .   S
    C157   O408      0.69963      .   S
    C150   O409      0.70358      .   S
    C142   O409      0.70358      .   S
    C206   O410      0.70442      .   S
    C211   O410      0.70442      .   S
    C206   O411      0.69875      .   S
    C231   O411      0.69875      .   S
    C243   O412      0.89076      .   S
    C142   O412      0.89076      .   S
    C243   O413      0.73089      .   S
    C279   O413      0.73089      .   S
    C244   O414      0.73183      .   S
    C289   O414      0.73183      .   S
    C244   O415      0.89189      .   S
    C167   O415      0.89189      .   S
    C80    O416      0.54462      .   S
    C231   O416      0.54462      .   S
    C157   O417      0.69755  1_545   S
    C152   O417      0.69755      .   S
    C211   O418      0.69296      .   S
    C212   O418      0.69296      .   S
    C231   O419      0.69675      .   S
    C227   O419      0.69675      .   S
    C142   O420      0.69192      .   S
    C153   O420      0.69192      .   S
    C166   O421      0.70345      .   S
    C167   O421      0.70345      .   S
    C166   O422      0.69944      .   S
    C176   O422      0.69944      .   S
    C96    O423      0.70317      .   S
    C102   O423      0.70317      .   S
    C96    O424      0.69935      .   S
    C109   O424      0.69935      .   S
    C102   O425      0.69107      .   S
    C118   O425      0.69107      .   S
    C50    O426      0.54500      .   S
    C176   O426      0.54500      .   S
    C167   O427      0.69212      .   S
    C197   O427      0.69212      .   S
    C176   O428      0.69736      .   S
    C182   O428      0.69736      .   S
    C212   O429      0.54450      .   S
    C69    O429      0.54450      .   S
    C212   O430      0.70256      .   S
    C213   O430      0.70256      .   S
    C152   O431      0.54446      .   S
    C37    O431      0.54446      .   S
    C152   O432      0.70299      .   S
    C149   O432      0.70299      .   S
    C15    O433      0.54517      .   S
    C109   O433      0.54517      .   S
    C109   O434      0.69888      .   S
    C108   O434      0.69888      .   S
    C153   O435      0.70240  1_545   S
    C149   O435      0.70240      .   S
    C153   O436      0.54415      .   S
    C38    O436      0.54415      .   S
    C227   O437      0.70176      .   S
    C213   O437      0.70176      .   S
    C227   O438      0.54345      .   S
    C76    O438      0.54345      .   S
    C118   O439      0.54415      .   S
    C21    O439      0.54415      .   S
    C118   O440      0.70192      .   S
    C94    O440      0.70192      .   S
    C149   O441      0.75129      .   S
    C145   O441      0.75129      .   S
    C197   O442      0.54427      .   S
    C63    O442      0.54427      .   S
    C197   O443      0.70268      .   S
    C186   O443      0.70268      .   S
    C213   O444      0.75106      .   S
    C234   O444      0.75106      .   S
    C182   O445      0.70230      .   S
    C186   O445      0.70230      .   S
    C182   O446      0.54418      .   S
    C53    O446      0.54418      .   S
    C108   O447      0.70235      .   S
    C94    O447      0.70235      .   S
    C108   O448      0.54449      .   S
    C14    O448      0.54449      .   S
    C94    O449      0.75130      .   S
    C101   O449      0.75130      .   S
    C186   O450      0.75137  1_565   S
    C164   O450      0.75137      .   S
    C66    O451      0.54489      .   S
    C200   O451      0.54489      .   S
    C39    O452      0.54415      .   S
    C154   O452      0.54415      .   S
    C234   O453      0.63756      .   S
    C298   O453      0.63756      .   S
    C234   O454      0.63561      .   S
    C299   O454      0.63561      .   S
    C145   O455      0.63864      .   S
    C269   O455      0.63864      .   S
    C145   O456      0.63476      .   S
    C273   O456      0.63476      .   S
    C65    O457      0.54485      .   S
    C199   O457      0.54485      .   S
    C298   O458      1.02595      .   S
    C4     O458      1.02595      .   S
    C31    O459      0.54452      .   S
    C141   O459      0.54452      .   S
    C269   O460      1.04546      .   S
    C3     O460      1.04546      .   S
    C101   O461      0.63753      .   S
    C259   O461      0.63753      .   S
    C101   O462      0.63509      .   S
    C256   O462      0.63509      .   S
    C164   O463      0.63660      .   S
    C282   O463      0.63660      .   S
    C164   O464      0.63690      .   S
    C284   O464      0.63690      .   S
    C273   O465      1.05591      .   S
    C2     O465      1.05591      .   S
    C259   O466      1.03784      .   S
    C3     O466      1.03784      .   S
    C299   O467      1.03518      .   S
    C5     O467      1.03518      .   S
    C28    O468      0.54471  1_655   S
    C133   O468      0.54471      .   S
    C282   O469      1.04654      .   S
    C4     O469      1.04654      .   S
    C32    O470      0.54485      .   S
    C143   O470      0.54485      .   S
    C200   O471      0.69412      .   S
    C199   O471      0.69412      .   S
    C200   O472      0.67471      .   S
    C253   O472      0.67471      .   S
    C284   O473      1.03641      .   S
    C5     O473      1.03641      .   S
    C199   O474      0.70229      .   S
    C165   O474      0.70229      .   S
    C154   O475      0.69406      .   S
    C141   O475      0.69406      .   S
    C154   O476      0.70067      .   S
    C127   O476      0.70067      .   S
    C141   O477      0.67462      .   S
    C251   O477      0.67462      .   S
    C256   O478      1.03771      .   S
    C2     O478      1.03771      .   S
    C67    O479      0.54359      .   S
    C201   O479      0.54359      .   S
    C133   O480      0.69366      .   S
    C143   O480      0.69366      .   S
    C133   O481      0.67485      .   S
    C250   O481      0.67485      .   S
    C143   O482      0.70140      .   S
    C131   O482      0.70140      .   S
    C64    O483      0.54414      .   S
    C198   O483      0.54414      .   S
    C201   O484      0.69388      .   S
    C198   O484      0.69388      .   S
    C201   O485      0.70007      .   S
    C169   O485      0.70007      .   S
    C198   O486      0.67421      .   S
    C252   O486      0.67421      .   S
    C250   O487      1.02722  1_455   S
    C3     O487      1.02722      .   S
    C250   O488      0.67449      .   S
    C160   O488      0.67449      .   S
    C4     O489      1.02664      .   S
    C253   O489      1.02664      .   S
    C4     O490      1.03720      .   S
    C292   O490      1.03720      .   S
    C4     O491      1.05590      .   S
    C285   O491      1.05590      .   S
    C3     O492      1.03649      .   S
    C272   O492      1.03649      .   S
    C3     O493      1.03523      .   S
    C263   O493      1.03523      .   S
    C253   O494      0.67463      .   S
    C179   O494      0.67463      .   S
    C131   O495      0.73807      .   S
    C127   O495      0.73807      .   S
    C131   O496      0.70009      .   S
    C163   O496      0.70009      .   S
    C127   O497      0.70227      .   S
    C161   O497      0.70227      .   S
    C165   O498      0.73806      .   S
    C169   O498      0.73806      .   S
    C165   O499      0.70067      .   S
    C192   O499      0.70067      .   S
    C169   O500      0.70144      .   S
    C181   O500      0.70144      .   S
    C251   O501      1.02664      .   S
    C2     O501      1.02664      .   S
    C251   O502      0.67471      .   S
    C162   O502      0.67471      .   S
    C5     O503      1.02718      .   S
    C252   O503      1.02718  1_655   S
    C5     O504      1.03792      .   S
    C295   O504      1.03792      .   S
    C5     O505      1.04546      .   S
    C281   O505      1.04546      .   S
    C2     O506      1.04648      .   S
    C270   O506      1.04648      .   S
    C2     O507      1.02598      .   S
    C262   O507      1.02598      .   S
    C252   O508      0.67499      .   S
    C171   O508      0.67499      .   S
    C160   O509      0.69388      .   S
    C163   O509      0.69388      .   S
    C160   O510      0.54416      .   S
    C44    O510      0.54416      .   S
    C163   O511      0.54315      .   S
    C47    O511      0.54315      .   S
    C181   O512      0.69365      .   S
    C171   O512      0.69365      .   S
    C181   O513      0.54464      .   S
    C52    O513      0.54464      .   S
    C171   O514      0.53722      .   S
    C48    O514      0.53722  1_455   S
    C292   O515      0.63550      .   S
    C215   O515      0.63550      .   S
    C179   O516      0.69407      .   S
    C192   O516      0.69407      .   S
    C179   O517      0.54451      .   S
    C51    O517      0.54451      .   S
    C192   O518      0.54416      .   S
    C59    O518      0.54416      .   S
    C161   O519      0.69412      .   S
    C162   O519      0.69412      .   S
    C161   O520      0.54494      .   S
    C45    O520      0.54494      .   S
    C272   O521      0.63689      .   S
    C126   O521      0.63689      .   S
    C162   O522      0.54432      .   S
    C46    O522      0.54432      .   S
    C270   O523      0.63663      .   S
    C126   O523      0.63663      .   S
    C263   O524      0.63566      .   S
    C120   O524      0.63566      .   S
    C295   O525      0.63752      .   S
    C215   O525      0.63752      .   S
    C285   O526      0.63467      .   S
    C183   O526      0.63467      .   S
    C126   O527      0.75132      .   S
    C148   O527      0.75132  1_545   S
    C215   O528      0.75135      .   S
    C208   O528      0.75135      .   S
    C281   O529      0.63860      .   S
    C183   O529      0.63860      .   S
    C262   O530      0.63758      .   S
    C120   O530      0.63758      .   S
    C183   O531      0.75142      .   S
    C187   O531      0.75142      .   S
    C120   O532      0.75103      .   S
    C99    O532      0.75103      .   S
    C74    O533      0.54451      .   S
    C222   O533      0.54451      .   S
    C33    O534      0.54418      .   S
    C144   O534      0.54418      .   S
    C148   O535      0.70230      .   S
    C144   O535      0.70230      .   S
    C148   O536      0.70272      .   S
    C159   O536      0.70272      .   S
    C208   O537      0.70236      .   S
    C222   O537      0.70236      .   S
    C208   O538      0.70188      .   S
    C232   O538      0.70188      .   S
    C222   O539      0.69818      .   S
    C223   O539      0.69818      .   S
    C43    O540      0.54431      .   S
    C159   O540      0.54431      .   S
    C144   O541      0.69738      .   S
    C138   O541      0.69738      .   S
    C16    O542      0.54343      .   S
    C113   O542      0.54343      .   S
    C58    O543      0.54453      .   S
    C191   O543      0.54453      .   S
    C99    O544      0.70174      .   S
    C113   O544      0.70174      .   S
    C99    O545      0.70252      .   S
    C98    O545      0.70252      .   S
    C159   O546      0.69205      .   S
    C129   O546      0.69205      .   S
    C187   O547      0.70241      .   S
    C191   O547      0.70241  1_565   S
    C187   O548      0.70271      .   S
    C190   O548      0.70271      .   S
    C81    O549      0.54414      .   S
    C232   O549      0.54414      .   S
    C232   O550      0.69090      .   S
    C216   O550      0.69090      .   S
    C57    O551      0.54425      .   S
    C190   O551      0.54425      .   S
    C9     O552      0.54448      .   S
    C98    O552      0.54448      .   S
    C113   O553      0.69672      .   S
    C117   O553      0.69672      .   S
    C191   O554      0.69190      .   S
    C180   O554      0.69190      .   S
    C223   O555      0.54522      .   S
    C75    O555      0.54522      .   S
    C223   O556      0.69994      .   S
    C210   O556      0.69994      .   S
    C190   O557      0.69805      .   S
    C195   O557      0.69805  1_565   S
    C98    O558      0.69294      .   S
    C97    O558      0.69294      .   S
    C138   O559      0.54500      .   S
    C30    O559      0.54500      .   S
    C138   O560      0.69942      .   S
    C128   O560      0.69942      .   S
    C129   O561      0.70345      .   S
    C128   O561      0.70345      .   S
    C129   O562      0.89195      .   S
    C242   O562      0.89195      .   S
    C277   O563      0.73207      .   S
    C242   O563      0.73207      .   S
    C291   O564      0.73086      .   S
    C245   O564      0.73086      .   S
    C216   O565      0.70320      .   S
    C210   O565      0.70320      .   S
    C216   O566      0.89042      .   S
    C247   O566      0.89042      .   S
    C210   O567      0.73523      .   S
    C226   O567      0.73523      .   S
    C128   O568      0.73433      .   S
    C130   O568      0.73433      .   S
    C180   O569      0.89073      .   S
    C245   O569      0.89073      .   S
    C180   O570      0.70361      .   S
    C188   O570      0.70361      .   S
    C117   O571      0.54463      .   S
    C20    O571      0.54463      .   S
    C117   O572      0.69849      .   S
    C92    O572      0.69849      .   S
    C97    O573      0.70428      .   S
    C92    O573      0.70428      .   S
    C97    O574      0.89041      .   S
    C240   O574      0.89041      .   S
    C195   O575      0.69963      .   S
    C188   O575      0.69963      .   S
    C195   O576      0.54496  1_565   S
    C62    O576      0.54496      .   S
    C300   O577      0.72798      .   S
    C247   O577      0.72798      .   S
    C266   O578      0.73065      .   S
    C240   O578      0.73065      .   S
    C242   O579      0.73046      .   S
    C278   O579      0.73046      .   S
    C242   O580      0.89062      .   S
    C135   O580      0.89062      .   S
    C245   O581      0.72744      .   S
    C288   O581      0.72744      .   S
    C245   O582      0.89088      .   S
    C178   O582      0.89088      .   S
    C92    O583      0.73437      .   S
    C90    O583      0.73437      .   S
    C188   O584      0.73502      .   S
    C172   O584      0.73502      .   S
    C82    O585      0.54480      .   S
    C233   O585      0.54480      .   S
    C226   O586      0.69949      .   S
    C233   O586      0.69949      .   S
    C226   O587      0.70373      .   S
    C218   O587      0.70373      .   S
    C247   O588      0.89088      .   S
    C218   O588      0.89088      .   S
    C247   O589      0.73102      .   S
    C303   O589      0.73102      .   S
    C130   O590      0.70423      .   S
    C135   O590      0.70423      .   S
    C130   O591      0.69839      .   S
    C155   O591      0.69839      .   S
    C240   O592      0.73192      .   S
    C265   O592      0.73192      .   S
    C240   O593      0.89131      .   S
    C91    O593      0.89131      .   S
    C40    O594      0.54452      .   S
    C155   O594      0.54452      .   S
    C233   O595      0.69793      .   S
    C228   O595      0.69793      .   S
    C135   O596      0.69307      .   S
    C136   O596      0.69307      .   S
    C218   O597      0.69202      .   S
    C229   O597      0.69202      .   S
    C155   O598      0.69676      .   S
    C151   O598      0.69676      .   S
    C172   O599      0.70330      .   S
    C178   O599      0.70330      .   S
    C172   O600      0.69990      .   S
    C185   O600      0.69990      .   S
    C90    O601      0.70349      .   S
    C91    O601      0.70349      .   S
    C90    O602      0.69933      .   S
    C100   O602      0.69933      .   S
    C178   O603      0.69132      .   S
    C194   O603      0.69132      .   S
    C10    O604      0.54502      .   S
    C100   O604      0.54502      .   S
    C91    O605      0.69201      .   S
    C121   O605      0.69201      .   S
    C100   O606      0.69700      .   S
    C106   O606      0.69700      .   S
    C136   O607      0.54454      .   S
    C29    O607      0.54454      .   S
    C136   O608      0.70265      .   S
    C137   O608      0.70265      .   S
    C228   O609      0.54444      .   S
    C77    O609      0.54444      .   S
    C228   O610      0.70302      .   S
    C225   O610      0.70302      .   S
    C55    O611      0.54518      .   S
    C185   O611      0.54518      .   S
    C185   O612      0.69802      .   S
    C184   O612      0.69802      .   S
    C229   O613      0.70246      .   S
    C225   O613      0.70246      .   S
    C229   O614      0.54420      .   S
    C78    O614      0.54420      .   S
    C151   O615      0.70183      .   S
    C137   O615      0.70183      .   S
    C151   O616      0.54353      .   S
    C36    O616      0.54353      .   S
    C194   O617      0.54420      .   S
    C61    O617      0.54420      .   S
    C194   O618      0.70215      .   S
    C170   O618      0.70215      .   S
    C225   O619      0.75149      .   S
    C221   O619      0.75149      .   S
    C121   O620      0.54432      .   S
    C23    O620      0.54432      .   S
    C121   O621      0.70251      .   S
    C110   O621      0.70251      .   S
    C137   O622      0.75128      .   S
    C158   O622      0.75128      .   S
    C106   O623      0.70240      .   S
    C110   O623      0.70240      .   S
    C106   O624      0.54427      .   S
    C13    O624      0.54427      .   S
    C184   O625      0.70235      .   S
    C170   O625      0.70235      .   S
    C184   O626      0.54445      .   S
    C54    O626      0.54445      .   S
    C170   O627      0.75127      .   S
    C177   O627      0.75127      .   S
    C110   O628      0.75128      .   S
    C88    O628      0.75128      .   S
    C26    O629      0.54494      .   S
    C124   O629      0.54494      .   S
    C221   O630      0.63850      .   S
    C293   O630      0.63850      .   S
    C221   O631      0.63446      .   S
    C297   O631      0.63446      .   S
    C79    O632      0.54477      .   S
    C230   O632      0.54477      .   S
    C158   O633      0.63769      .   S
    C274   O633      0.63769      .   S
    C158   O634      0.63546      .   S
    C275   O634      0.63546      .   S
    C25    O635      0.54482      .   S
    C123   O635      0.54482      .   S
    C274   O636      1.02588      .   S
    C0     O636      1.02588      .   S
    C71    O637      0.54448      .   S
    C217   O637      0.54448      .   S
    C293   O638      1.04641      .   S
    C7     O638      1.04641      .   S
    C177   O639      0.63787      .   S
    C283   O639      0.63787      .   S
    C177   O640      0.63565      .   S
    C280   O640      0.63565      .   S
    C88    O641      0.63655      .   S
    C258   O641      0.63655      .   S
    C88    O642      0.63692      .   S
    C260   O642      0.63692      .   S
    C283   O643      1.03262      .   S
    C7     O643      1.03262      .   S
    C68    O644      0.54473      .   S
    C209   O644      0.54473      .   S
    C72    O645      0.54466      .   S
    C219   O645      0.54466      .   S
    C258   O646      1.04529      .   S
    C0     O646      1.04529      .   S
    C124   O647      0.69428      .   S
    C123   O647      0.69428      .   S
    C124   O648      0.67413      .   S
    C249   O648      0.67413      .   S
    C230   O649      0.69394      .   S
    C217   O649      0.69394      .   S
    C230   O650      0.70077      .   S
    C203   O650      0.70077      .   S
    C27    O651      0.54362      .   S
    C125   O651      0.54362      .   S
    C209   O652      0.69363      .   S
    C219   O652      0.69363      .   S
    C209   O653      0.67513      .   S
    C254   O653      0.67513      .   S
    C219   O654      0.70119      .   S
    C207   O654      0.70119      .   S
    C24    O655      0.54413      .   S
    C122   O655      0.54413      .   S
    C125   O656      0.69396      .   S
    C122   O656      0.69396      .   S
    C254   O657      1.02851  1_655   S
    C7     O657      1.02851      .   S
    C0     O658      1.02724      .   S
    C249   O658      1.02724      .   S
    C207   O659      0.73826      .   S
    C203   O659      0.73826      .   S
    C0     O660      1.43817      .   S
    C1     O660      1.43817  1_554   S
    C2     O661      1.43639      .   S
    C3     O661      1.43639      .   S
    C4     O662      1.43638      .   S
    C5     O662      1.43638      .   S
    C6     O663      1.43818      .   S
    C7     O663      1.43818  1_556   S
