# CIF file generated by openbabel 2.4.90, see http://openbabel.sf.net
data_I
_chemical_name_common ''
_cell_length_a 13.941
_cell_length_b 20.677
_cell_length_c 22.214
_cell_angle_alpha 89.995
_cell_angle_beta 90.511
_cell_angle_gamma 101.284
_space_group_name_H-M_alt 'P 1'
_space_group_name_Hall 'P 1'
loop_
    _symmetry_equiv_pos_as_xyz
    x,y,z
loop_
    _atom_site_label
    _atom_site_type_symbol
    _atom_site_fract_x
    _atom_site_fract_y
    _atom_site_fract_z
    _atom_site_occupancy
    N0      N    0.74118   0.58773   0.26284   1.000
    N1      N    0.27177   0.85674   0.49639   1.000
    N2      N    0.25825   0.91216   0.76204   1.000
    N3      N    0.72806   0.64350   0.99648   1.000
    N4      N    0.72816   0.14329   0.50358   1.000
    N5      N    0.79881   0.62531   0.76551   1.000
    N6      N    0.27198   0.35652   0.00349   1.000
    N7      N    0.74179   0.08786   0.23794   1.000
    N8      N    0.79904   0.12614   0.73504   1.000
    N9      N    0.20098   0.87388   0.26493   1.000
    N10     N    0.25886   0.41228   0.73715   1.000
    N11     N    0.20129   0.37472   0.23445   1.000
    Zr12    Zr   0.22917   0.14478   0.49971   1.000
    O13     O    0.39823   0.14755   0.49848   1.000
    O14     O    0.05952   0.14134   0.50324   1.000
    O15     O    0.21379   0.04496   0.41670   1.000
    O16     O    0.21939   0.22680   0.40338   1.000
    O17     O    0.23978   0.06252   0.59543   1.000
    O18     O    0.24454   0.24328   0.58362   1.000
    Zr19    Zr   0.77086   0.85524   0.50027   1.000
    O20     O    0.78066   0.77322   0.59660   1.000
    O21     O    0.94048   0.85867   0.49673   1.000
    O22     O    0.75550   0.75673   0.41637   1.000
    O23     O    0.78624   0.95506   0.58328   1.000
    O24     O    0.76025   0.93750   0.40455   1.000
    O25     O    0.60178   0.85247   0.50150   1.000
    Zr26    Zr   0.77098   0.35516   0.00064   1.000
    O27     O    0.60186   0.35229   0.99881   1.000
    O28     O    0.78586   0.45467   0.91758   1.000
    O29     O    0.78070   0.27349   0.90415   1.000
    O30     O    0.76035   0.43744   0.09635   1.000
    O31     O    0.94069   0.35862   0.00412   1.000
    O32     O    0.75613   0.25672   0.08438   1.000
    Zr33    Zr   0.22907   0.64485   0.99934   1.000
    O34     O    0.39818   0.64773   0.00116   1.000
    O35     O    0.24391   0.74330   0.91560   1.000
    O36     O    0.21421   0.54535   0.08233   1.000
    O37     O    0.21933   0.72652   0.09583   1.000
    O38     O    0.05935   0.64140   0.99586   1.000
    O39     O    0.23969   0.56257   0.90364   1.000
loop_
    _geom_bond_atom_site_label_1
    _geom_bond_atom_site_label_2
    _geom_bond_distance
    _geom_bond_site_symmetry_2
    _ccdc_geom_bond_type
    Zr12   O13       2.34667      .   S
    N4     O13       4.61806      .   S
    Zr12   O14       2.35422      .   S
    N4     O14       4.62759  1_655   S
    Zr12   O15       2.74345      .   S
    N9     O15       4.86370  1_565   S
    Zr12   O16       2.74926      .   S
    N11    O16       4.87689      .   S
    Zr12   O17       2.74379      .   S
    N2     O17       4.87072  1_565   S
    Zr12   O18       2.73703      .   S
    N10    O18       4.85795      .   S
    Zr19   O20       2.74925      .   S
    N5     O20       4.87658      .   S
    Zr19   O21       2.35387      .   S
    N1     O21       4.62657  1_455   S
    Zr19   O22       2.73703      .   S
    N0     O22       4.85797      .   S
    Zr19   O23       2.74347      .   S
    N8     O23       4.86369  1_545   S
    Zr19   O24       2.74383      .   S
    N7     O24       4.87076  1_545   S
    Zr19   O25       2.34703      .   S
    N1     O25       4.61910      .   S
    Zr26   O27       2.34681  1_554   S
    N6     O27       4.61886  1_554   S
    Zr26   O28       2.74234  1_554   S
    N5     O28       4.86318      .   S
    Zr26   O29       2.74944  1_554   S
    N8     O29       4.87690      .   S
    Zr26   O30       2.74609      .   S
    N0     O30       4.87350      .   S
    Zr26   O31       2.35366      .   S
    N6     O31       4.62723  1_455   S
    Zr26   O32       2.73646      .   S
    N7     O32       4.85832      .   S
    Zr33   O34       2.34677  1_556   S
    N3     O34       4.61885  1_556   S
    Zr33   O35       2.73644      .   S
    N2     O35       4.85838      .   S
    Zr33   O36       2.74116  1_556   S
    N11    O36       4.86404      .   S
    Zr33   O37       2.74945  1_556   S
    N9     O37       4.87686      .   S
    Zr33   O38       2.35369      .   S
    N3     O38       4.62724  1_655   S
    Zr33   O39       2.74608      .   S
    N10    O39       4.87356      .   S
