# CIF file generated by openbabel 2.4.90, see http://openbabel.sf.net
data_I
_chemical_name_common ''
_cell_length_a 10.9375
_cell_length_b 13.463
_cell_length_c 15.13
_cell_angle_alpha 90.056
_cell_angle_beta 105.416
_cell_angle_gamma 90.013
_space_group_name_H-M_alt 'P 1'
_space_group_name_Hall 'P 1'
loop_
    _symmetry_equiv_pos_as_xyz
    x,y,z
loop_
    _atom_site_label
    _atom_site_type_symbol
    _atom_site_fract_x
    _atom_site_fract_y
    _atom_site_fract_z
    _atom_site_occupancy
    Zn0     Zn   0.25058   0.82537   0.50002   1.000
    Zn1     Zn   0.75175   0.17410   0.49994   1.000
    C2      C    0.77806   0.28832   0.36618   1.000
    C3      C    0.72468   0.28824   0.63393   1.000
    C4      C    0.22382   0.71142   0.63419   1.000
    C5      C    0.27714   0.71123   0.36586   1.000
    O6      O    0.66281   0.29502   0.36325   1.000
    O7      O    0.85826   0.23366   0.42547   1.000
    O8      O    0.84000   0.29528   0.63715   1.000
    O9      O    0.64492   0.23345   0.57437   1.000
    O10     O    0.33912   0.70450   0.63729   1.000
    O11     O    0.14395   0.76607   0.57468   1.000
    O12     O    0.16183   0.70444   0.36280   1.000
    O13     O    0.35718   0.76594   0.42536   1.000
    Ts14    Ts   0.28705   0.85977   0.53083   1.000
    Ts15    Ts   0.21410   0.85974   0.46921   1.000
    Ts16    Ts   0.71494   0.13972   0.46905   1.000
    Ts17    Ts   0.78814   0.13972   0.53080   1.000
    Og18    Og   0.79517   0.30586   0.34286   1.000
    Og19    Og   0.70736   0.30572   0.65721   1.000
    Og20    Og   0.20658   0.69395   0.65751   1.000
    Og21    Og   0.29433   0.69369   0.34254   1.000
loop_
    _geom_bond_atom_site_label_1
    _geom_bond_atom_site_label_2
    _geom_bond_distance
    _geom_bond_site_symmetry_2
    _ccdc_geom_bond_type
    O12    C5        1.25291      .   S
    O6     C2        1.25285      .   S
    C5     O13       1.30333      .   S
    C2     O7        1.30343      .   S
    O13    Zn0       1.99356      .   S
    O7     Zn1       1.99224      .   S
    Zn1    O9        1.99237      .   S
    Zn0    O11       1.99393      .   S
    O9     C3        1.30296      .   S
    O11    C4        1.30327      .   S
    C3     O8        1.25280      .   S
    C4     O10       1.25284      .   S
    Zn0    Ts14      0.70106      .   S
    Zn0    Ts15      0.70158      .   S
    Zn1    Ts16      0.70302      .   S
    Zn1    Ts17      0.70170      .   S
    C2     Og18      0.50058      .   S
    C3     Og19      0.50071      .   S
    C4     Og20      0.50092      .   S
    C5     Og21      0.50082      .   S
