# CIF file generated by openbabel 2.4.90, see http://openbabel.sf.net
data_I
_chemical_name_common ''
_cell_length_a 17.2
_cell_length_b 18.534
_cell_length_c 18.532
_cell_angle_alpha 77.738
_cell_angle_beta 62.555
_cell_angle_gamma 62.555
_space_group_name_H-M_alt 'P 1'
_space_group_name_Hall 'P 1'
loop_
    _symmetry_equiv_pos_as_xyz
    x,y,z
loop_
    _atom_site_label
    _atom_site_type_symbol
    _atom_site_fract_x
    _atom_site_fract_y
    _atom_site_fract_z
    _atom_site_occupancy
    Zr0     Zr   0.43801   0.12448   0.12450   1.000
    Zr1     Zr   0.43802   0.12448   0.62451   1.000
    Zr2     Zr   0.43801   0.62448   0.12450   1.000
    Zr3     Zr   0.43802   0.62447   0.62450   1.000
    Zr4     Zr   0.93800   0.12448   0.12450   1.000
    Zr5     Zr   0.93800   0.12448   0.62451   1.000
    Zr6     Zr   0.93800   0.62448   0.12450   1.000
    Zr7     Zr   0.93801   0.62447   0.62450   1.000
    Zr8     Zr   0.06199   0.37552   0.37554   1.000
    Zr9     Zr   0.06200   0.37552   0.87555   1.000
    Zr10    Zr   0.06200   0.87552   0.37554   1.000
    Zr11    Zr   0.06201   0.87551   0.87555   1.000
    Zr12    Zr   0.56198   0.37552   0.37554   1.000
    Zr13    Zr   0.56199   0.37552   0.87555   1.000
    Zr14    Zr   0.56199   0.87552   0.37554   1.000
    Zr15    Zr   0.56200   0.87551   0.87555   1.000
    Zr16    Zr   0.31275   0.37474   0.37477   1.000
    Zr17    Zr   0.31276   0.37474   0.87477   1.000
    Zr18    Zr   0.31275   0.87474   0.37477   1.000
    Zr19    Zr   0.31276   0.87473   0.87470   1.000
    Zr20    Zr   0.81274   0.37474   0.37477   1.000
    Zr21    Zr   0.81275   0.37474   0.87470   1.000
    Zr22    Zr   0.81274   0.87474   0.37477   1.000
    Zr23    Zr   0.81275   0.87473   0.87477   1.000
    Zr24    Zr   0.18725   0.12526   0.12527   1.000
    Zr25    Zr   0.18726   0.12525   0.62528   1.000
    Zr26    Zr   0.18725   0.62526   0.12528   1.000
    Zr27    Zr   0.18727   0.62525   0.62528   1.000
    Zr28    Zr   0.68724   0.12526   0.12527   1.000
    Zr29    Zr   0.68725   0.12526   0.62528   1.000
    Zr30    Zr   0.68724   0.62526   0.12528   1.000
    Zr31    Zr   0.68726   0.62525   0.62528   1.000
    N32     N    0.75000   0.50000   0.00002   1.000
    O33     O    0.85704   0.45263   0.95266   1.000
    O34     O    0.64296   0.54737   0.04738   1.000
    N35     N    0.99999   0.75000   0.24996   1.000
    O36     O    0.01193   0.79773   0.29761   1.000
    O37     O    0.98806   0.70228   0.20227   1.000
    N38     N    0.50001   0.25000   0.75002   1.000
    O39     O    0.51194   0.29772   0.79775   1.000
    O40     O    0.48807   0.20228   0.70229   1.000
    N41     N    0.00001   0.25000   0.75003   1.000
    O42     O    0.98807   0.20227   0.70231   1.000
    O43     O    0.01194   0.29772   0.79775   1.000
    N44     N    0.25000   0.50000   0.25002   1.000
    O45     O    0.19034   0.45246   0.29756   1.000
    O46     O    0.30966   0.54754   0.20248   1.000
    N47     N    0.75000   0.25000   0.00002   1.000
    O48     O    0.80966   0.20246   0.04756   1.000
    O49     O    0.69033   0.29754   0.95249   1.000
    N50     N    0.74999   0.00000   0.25002   1.000
    O51     O    0.69033   0.95246   0.29756   1.000
    O52     O    0.80965   0.04754   0.20248   1.000
    N53     N    0.25001   0.50000   0.50002   1.000
    O54     O    0.14297   0.54736   0.54738   1.000
    O55     O    0.35704   0.45263   0.45266   1.000
    N56     N    0.25000   0.00000   0.50002   1.000
    O57     O    0.14297   0.04737   0.54739   1.000
    O58     O    0.35704   0.95263   0.45266   1.000
    N59     N    0.75000   1.00000   0.00002   1.000
    O60     O    0.64296   0.04737   0.04738   1.000
    O61     O    0.85704   0.95263   0.95266   1.000
    N62     N    0.25000   0.00000   0.25002   1.000
    O63     O    0.19034   0.95246   0.29756   1.000
    O64     O    0.30966   0.04755   0.20248   1.000
    N65     N    0.75000   0.49999   0.75003   1.000
    O66     O    0.69034   0.45246   0.79757   1.000
    O67     O    0.80967   0.54754   0.70249   1.000
    N68     N    0.25001   0.75000   0.00002   1.000
    O69     O    0.19035   0.79754   0.95248   1.000
    O70     O    0.30967   0.70246   0.04756   1.000
    N71     N    0.25001   0.00000   0.00002   1.000
    O72     O    0.35704   0.95263   0.95266   1.000
    O73     O    0.14296   0.04737   0.04738   1.000
    N74     N    0.75000   0.75000   0.00002   1.000
    O75     O    0.80966   0.70246   0.04756   1.000
    O76     O    0.69034   0.79754   0.95249   1.000
    N77     N    0.25001   0.25000   0.50002   1.000
    O78     O    0.19034   0.29754   0.45248   1.000
    O79     O    0.30967   0.20246   0.54757   1.000
    N80     N    0.75000   0.25000   0.50002   1.000
    O81     O    0.69033   0.29754   0.45247   1.000
    O82     O    0.80966   0.20246   0.54756   1.000
    N83     N    0.75000   0.75000   0.50002   1.000
    O84     O    0.69033   0.79754   0.45248   1.000
    O85     O    0.80967   0.70245   0.54756   1.000
    N86     N    0.50000   0.25000   0.25001   1.000
    O87     O    0.48806   0.20228   0.20228   1.000
    O88     O    0.51193   0.29773   0.29774   1.000
    N89     N    0.74999   0.00000   0.50002   1.000
    O90     O    0.85703   0.95263   0.45266   1.000
    O91     O    0.64296   0.04737   0.54739   1.000
    N92     N    0.75000   0.50000   0.50002   1.000
    O93     O    0.85703   0.45263   0.45266   1.000
    O94     O    0.64297   0.54736   0.54738   1.000
    N95     N    0.99999   0.25001   0.25002   1.000
    O96     O    0.98806   0.20228   0.20230   1.000
    O97     O    0.01193   0.29773   0.29774   1.000
    N98     N    0.49999   0.75000   0.25001   1.000
    O99     O    0.48806   0.70228   0.20229   1.000
    O100    O    0.51193   0.79773   0.29774   1.000
    N101    N    0.25001   0.25000   0.00002   1.000
    O102    O    0.19034   0.29754   0.95248   1.000
    O103    O    0.30967   0.20246   0.04756   1.000
    N104    N    0.00001   0.74999   0.75002   1.000
    O105    O    0.98808   0.70227   0.70230   1.000
    O106    O    0.01195   0.79772   0.79775   1.000
    N107    N    0.74999   0.50000   0.25002   1.000
    O108    O    0.69033   0.45246   0.29756   1.000
    O109    O    0.80965   0.54754   0.20248   1.000
    N110    N    0.25000   0.50000   0.00002   1.000
    O111    O    0.14296   0.54737   0.04738   1.000
    O112    O    0.35704   0.45263   0.95266   1.000
    N113    N    0.25001   0.75000   0.50002   1.000
    O114    O    0.30968   0.70245   0.54756   1.000
    O115    O    0.19034   0.79754   0.45248   1.000
    N116    N    0.50001   0.74999   0.75003   1.000
    O117    O    0.48807   0.70227   0.70230   1.000
    O118    O    0.51195   0.79772   0.79775   1.000
    N119    N    0.25001   0.49999   0.75003   1.000
    O120    O    0.19035   0.45246   0.79757   1.000
    O121    O    0.30968   0.54754   0.70249   1.000
    N122    N    0.75000   0.99999   0.75003   1.000
    O123    O    0.69034   0.95245   0.79757   1.000
    O124    O    0.80966   0.04754   0.70249   1.000
    N125    N    0.25001   0.99999   0.75003   1.000
    O126    O    0.19035   0.95245   0.79757   1.000
    O127    O    0.30967   0.04754   0.70249   1.000
    O128    O    0.22867   0.04279   0.70747   1.000
    O129    O    0.27135   0.95720   0.79256   1.000
    O130    O    0.27134   0.29255   0.45723   1.000
    O131    O    0.27154   0.45724   0.45726   1.000
    O132    O    0.27134   0.45721   0.29258   1.000
    O133    O    0.43618   0.29259   0.29260   1.000
    O134    O    0.27135   0.29255   0.95723   1.000
    O135    O    0.27135   0.45720   0.79258   1.000
    O136    O    0.27155   0.45724   0.95727   1.000
    O137    O    0.43619   0.29259   0.79261   1.000
    O138    O    0.06383   0.70740   0.70744   1.000
    O139    O    0.93619   0.79258   0.79261   1.000
    O140    O    0.77135   0.95720   0.79258   1.000
    O141    O    0.72866   0.04279   0.70747   1.000
    O142    O    0.72846   0.04276   0.54278   1.000
    O143    O    0.77153   0.95724   0.45727   1.000
    O144    O    0.72865   0.54280   0.20747   1.000
    O145    O    0.77133   0.45721   0.29258   1.000
    O146    O    0.56383   0.70741   0.70744   1.000
    O147    O    0.43619   0.79258   0.79260   1.000
    O148    O    0.72867   0.54279   0.70747   1.000
    O149    O    0.72866   0.70744   0.54281   1.000
    O150    O    0.72846   0.54276   0.54278   1.000
    O151    O    0.43618   0.79259   0.29260   1.000
    O152    O    0.27134   0.79255   0.45723   1.000
    O153    O    0.27134   0.95721   0.29258   1.000
    O154    O    0.27154   0.95724   0.45727   1.000
    O155    O    0.22867   0.20744   0.54282   1.000
    O156    O    0.22847   0.04276   0.54278   1.000
    O157    O    0.06383   0.20741   0.70744   1.000
    O158    O    0.22866   0.20745   0.04281   1.000
    O159    O    0.56381   0.70742   0.20743   1.000
    O160    O    0.22868   0.70744   0.54281   1.000
    O161    O    0.22868   0.54279   0.70747   1.000
    O162    O    0.22847   0.54276   0.54278   1.000
    O163    O    0.06382   0.70742   0.20740   1.000
    O164    O    0.93617   0.79259   0.29253   1.000
    O165    O    0.77134   0.45720   0.79256   1.000
    O166    O    0.27135   0.79255   0.95721   1.000
    O167    O    0.22867   0.70745   0.04281   1.000
    O168    O    0.27155   0.95723   0.95725   1.000
    O169    O    0.22846   0.04277   0.04278   1.000
    O170    O    0.77134   0.79255   0.95723   1.000
    O171    O    0.72866   0.70745   0.04281   1.000
    O172    O    0.72866   0.20744   0.54282   1.000
    O173    O    0.77133   0.29256   0.45722   1.000
    O174    O    0.77154   0.95723   0.95727   1.000
    O175    O    0.72866   0.20745   0.04281   1.000
    O176    O    0.72846   0.04276   0.04278   1.000
    O177    O    0.72865   0.04280   0.20746   1.000
    O178    O    0.56381   0.20742   0.20742   1.000
    O179    O    0.56382   0.20741   0.70743   1.000
    O180    O    0.72845   0.54277   0.04278   1.000
    O181    O    0.77134   0.29255   0.95722   1.000
    O182    O    0.93619   0.29259   0.79260   1.000
    O183    O    0.77154   0.45724   0.95725   1.000
    O184    O    0.22846   0.54277   0.04278   1.000
    O185    O    0.22866   0.54280   0.20747   1.000
    O186    O    0.93617   0.29259   0.29261   1.000
    O187    O    0.77153   0.45724   0.45726   1.000
    O188    O    0.22866   0.04280   0.20746   1.000
    O189    O    0.06382   0.20742   0.20743   1.000
    O190    O    0.77133   0.95721   0.29258   1.000
    O191    O    0.77133   0.79255   0.45723   1.000
loop_
    _geom_bond_atom_site_label_1
    _geom_bond_atom_site_label_2
    _geom_bond_distance
    _geom_bond_site_symmetry_2
    _ccdc_geom_bond_type
    N32    O33       1.50948  1_554   S
    Zr9    O33       2.84471  1_455   S
    N32    O34       1.50942      .   S
    Zr2    O34       2.84448      .   S
    N35    O36       1.50694  1_655   S
    Zr10   O36       2.84274      .   S
    N35    O37       1.50743      .   S
    Zr6    O37       2.84051      .   S
    N38    O39       1.50795      .   S
    Zr13   O39       2.84085      .   S
    N38    O40       1.50802      .   S
    Zr1    O40       2.84055      .   S
    N41    O42       1.50787  1_455   S
    Zr5    O42       2.84096      .   S
    N41    O43       1.50789      .   S
    Zr9    O43       2.84094      .   S
    N44    O45       1.50863      .   S
    Zr8    O45       2.84264      .   S
    N44    O46       1.50863      .   S
    Zr2    O46       2.84266      .   S
    N47    O48       1.50851      .   S
    Zr4    O48       2.84248      .   S
    N47    O49       1.50854  1_554   S
    Zr13   O49       2.84253      .   S
    N50    O51       1.50863  1_545   S
    Zr14   O51       2.84266      .   S
    N50    O52       1.50863      .   S
    Zr4    O52       2.84266      .   S
    N53    O54       1.50943      .   S
    Zr7    O54       2.84463  1_655   S
    N53    O55       1.50936      .   S
    Zr12   O55       2.84444      .   S
    N56    O57       1.50946      .   S
    Zr5    O57       2.84467  1_655   S
    N56    O58       1.50940  1_545   S
    Zr14   O58       2.84450      .   S
    N59    O60       1.50945  1_565   S
    Zr0    O60       2.84453      .   S
    N59    O61       1.50952  1_554   S
    Zr11   O61       2.84475  1_455   S
    N62    O63       1.50863  1_545   S
    Zr10   O63       2.84267      .   S
    N62    O64       1.50863      .   S
    Zr0    O64       2.84266      .   S
    N65    O66       1.50864      .   S
    Zr13   O66       2.84266      .   S
    N65    O67       1.50864      .   S
    Zr7    O67       2.84265      .   S
    N68    O69       1.50846  1_554   S
    Zr11   O69       2.84242      .   S
    N68    O70       1.50856      .   S
    Zr2    O70       2.84255      .   S
    N71    O72       1.50945  1_544   S
    Zr15   O72       2.84455      .   S
    N71    O73       1.50950      .   S
    Zr4    O73       2.84472  1_655   S
    N74    O75       1.50852      .   S
    Zr6    O75       2.84250      .   S
    N74    O76       1.50850  1_554   S
    Zr15   O76       2.84248      .   S
    N77    O78       1.50865      .   S
    Zr8    O78       2.84263      .   S
    N77    O79       1.50864      .   S
    Zr1    O79       2.84260      .   S
    N80    O81       1.50875      .   S
    Zr12   O81       2.84244      .   S
    N80    O82       1.50869      .   S
    Zr5    O82       2.84264      .   S
    N83    O84       1.50861      .   S
    Zr14   O84       2.84263      .   S
    N83    O85       1.50861      .   S
    Zr7    O85       2.84260      .   S
    N86    O87       1.50799      .   S
    Zr0    O87       2.84059      .   S
    N86    O88       1.50794      .   S
    Zr12   O88       2.84086      .   S
    N89    O90       1.50946  1_545   S
    Zr10   O90       2.84470  1_455   S
    N89    O91       1.50939      .   S
    Zr1    O91       2.84446      .   S
    N92    O93       1.50943      .   S
    Zr8    O93       2.84466  1_455   S
    N92    O94       1.50937      .   S
    Zr3    O94       2.84441      .   S
    N95    O96       1.50788      .   S
    Zr4    O96       2.84097      .   S
    N95    O97       1.50788  1_655   S
    Zr8    O97       2.84092      .   S
    N98    O99       1.50781      .   S
    Zr2    O99       2.84076      .   S
    N98    O100      1.50795      .   S
    Zr14   O100      2.84086      .   S
    N101   O102      1.50848  1_554   S
    Zr9    O102      2.84246      .   S
    N101   O103      1.50857      .   S
    Zr0    O103      2.84255      .   S
    N104   O105      1.50791  1_455   S
    Zr7    O105      2.84099      .   S
    N104   O106      1.50791      .   S
    Zr11   O106      2.84096      .   S
    N107   O108      1.50864      .   S
    Zr12   O108      2.84266      .   S
    N107   O109      1.50863      .   S
    Zr6    O109      2.84265      .   S
    N110   O111      1.50948      .   S
    Zr6    O111      2.84468  1_655   S
    N110   O112      1.50942  1_554   S
    Zr13   O112      2.84450      .   S
    N113   O114      1.50862      .   S
    Zr3    O114      2.84260      .   S
    N113   O115      1.50863      .   S
    Zr10   O115      2.84259      .   S
    N116   O117      1.50790      .   S
    Zr3    O117      2.84090      .   S
    N116   O118      1.50789      .   S
    Zr15   O118      2.84082      .   S
    N119   O120      1.50863      .   S
    Zr9    O120      2.84264      .   S
    N119   O121      1.50864      .   S
    Zr3    O121      2.84266      .   S
    N122   O123      1.50863      .   S
    Zr15   O123      2.84268      .   S
    N122   O124      1.50863  1_565   S
    Zr5    O124      2.84266      .   S
    N125   O126      1.50863      .   S
    Zr11   O126      2.84266      .   S
    N125   O127      1.50863  1_565   S
    Zr1    O127      2.84268      .   S
    N125   O128      1.05763  1_565   S
    Zr25   O128      2.04234      .   S
    N125   O129      1.05736      .   S
    Zr19   O129      2.04155      .   S
    Zr16   O130      2.04227      .   S
    N77    O130      1.05761      .   S
    Zr16   O131      2.04256      .   S
    N53    O131      1.05774      .   S
    Zr16   O132      2.04234      .   S
    N44    O132      1.05762      .   S
    Zr16   O133      2.04189      .   S
    N86    O133      1.05747      .   S
    Zr17   O134      2.04225      .   S
    N101   O134      1.05754  1_554   S
    Zr17   O135      2.04224      .   S
    N119   O135      1.05760      .   S
    Zr17   O136      2.04269      .   S
    N110   O136      1.05775  1_554   S
    Zr17   O137      2.04184      .   S
    N38    O137      1.05746      .   S
    N104   O138      1.05747      .   S
    Zr27   O138      2.04184      .   S
    N104   O139      1.05747  1_455   S
    Zr23   O139      2.04185      .   S
    N122   O140      1.05760      .   S
    Zr23   O140      2.04229      .   S
    N122   O141      1.05763  1_565   S
    Zr29   O141      2.04235      .   S
    N89    O142      1.05773      .   S
    Zr29   O142      2.04268      .   S
    N89    O143      1.05773  1_545   S
    Zr22   O143      2.04270      .   S
    N107   O144      1.05759      .   S
    Zr30   O144      2.04227      .   S
    N107   O145      1.05761      .   S
    Zr20   O145      2.04232      .   S
    N116   O146      1.05744      .   S
    Zr31   O146      2.04184      .   S
    N116   O147      1.05728      .   S
    Zr19   O147      2.04139      .   S
    Zr31   O148      2.04227      .   S
    N65    O148      1.05763      .   S
    Zr31   O149      2.04231      .   S
    N83    O149      1.05761      .   S
    Zr31   O150      2.04271      .   S
    N92    O150      1.05780      .   S
    Zr18   O151      2.04196      .   S
    N98    O151      1.05742      .   S
    Zr18   O152      2.04227      .   S
    N113   O152      1.05760      .   S
    Zr18   O153      2.04231      .   S
    N62    O153      1.05764  1_545   S
    Zr18   O154      2.04268      .   S
    N56    O154      1.05772  1_545   S
    Zr25   O155      2.04228      .   S
    N77    O155      1.05761      .   S
    Zr25   O156      2.04268      .   S
    N56    O156      1.05773      .   S
    Zr25   O157      2.04188      .   S
    N41    O157      1.05748      .   S
    N101   O158      1.05758      .   S
    Zr24   O158      2.04225      .   S
    N98    O159      1.05738      .   S
    Zr30   O159      2.04176      .   S
    Zr27   O160      2.04232      .   S
    N113   O160      1.05761      .   S
    Zr27   O161      2.04229      .   S
    N119   O161      1.05761      .   S
    Zr27   O162      2.04274      .   S
    N53    O162      1.05779      .   S
    N35    O163      1.05720  1_655   S
    Zr26   O163      2.04159      .   S
    N35    O164      1.05734      .   S
    Zr22   O164      2.04251      .   S
    N65    O165      1.05736      .   S
    Zr21   O165      2.04152      .   S
    N68    O166      1.05768  1_554   S
    Zr19   O166      2.04267      .   S
    N68    O167      1.05759      .   S
    Zr26   O167      2.04229      .   S
    N71    O168      1.05800  1_544   S
    Zr19   O168      2.04344      .   S
    N71    O169      1.05772      .   S
    Zr24   O169      2.04263      .   S
    N74    O170      1.05756  1_554   S
    Zr23   O170      2.04226      .   S
    N74    O171      1.05757      .   S
    Zr30   O171      2.04227      .   S
    N80    O172      1.05764      .   S
    Zr29   O172      2.04230      .   S
    N80    O173      1.05763      .   S
    Zr20   O173      2.04222      .   S
    Zr23   O174      2.04271      .   S
    N59    O174      1.05775  1_554   S
    Zr28   O175      2.04223      .   S
    N47    O175      1.05755      .   S
    Zr28   O176      2.04263      .   S
    N59    O176      1.05772  1_565   S
    Zr28   O177      2.04235      .   S
    N50    O177      1.05764      .   S
    Zr28   O178      2.04176      .   S
    N86    O178      1.05746      .   S
    Zr29   O179      2.04175      .   S
    N38    O179      1.05746      .   S
    Zr30   O180      2.04269      .   S
    N32    O180      1.05775      .   S
    Zr21   O181      2.04270      .   S
    N47    O181      1.05771  1_554   S
    Zr21   O182      2.04142      .   S
    N41    O182      1.05732  1_455   S
    Zr21   O183      2.04343      .   S
    N32    O183      1.05800  1_554   S
    Zr26   O184      2.04268      .   S
    N110   O184      1.05775      .   S
    Zr26   O185      2.04228      .   S
    N44    O185      1.05759      .   S
    Zr20   O186      2.04189      .   S
    N95    O186      1.05747      .   S
    Zr20   O187      2.04260      .   S
    N92    O187      1.05768      .   S
    Zr24   O188      2.04236      .   S
    N62    O188      1.05764      .   S
    Zr24   O189      2.04188      .   S
    N95    O189      1.05748  1_655   S
    Zr22   O190      2.04230      .   S
    N50    O190      1.05763  1_545   S
    Zr22   O191      2.04229      .   S
    N83    O191      1.05759      .   S
