# CIF file generated by openbabel 2.4.90, see http://openbabel.sf.net
data_I
_chemical_name_common 'VESTA_phase_1'
_cell_length_a 15.503
_cell_length_b 15.666
_cell_length_c 18.559
_cell_angle_alpha 90.008
_cell_angle_beta 90
_cell_angle_gamma 89.962
_space_group_name_H-M_alt 'P 1'
_space_group_name_Hall 'P 1'
loop_
    _symmetry_equiv_pos_as_xyz
    x,y,z
loop_
    _atom_site_label
    _atom_site_type_symbol
    _atom_site_fract_x
    _atom_site_fract_y
    _atom_site_fract_z
    _atom_site_occupancy
    Zn0     Zn   0.79643   0.86257   0.59402   1.000
    Zn1     Zn   0.48922   0.66328   0.68600   1.000
    Zn2     Zn   0.70355   0.13744   0.09401   1.000
    Zn3     Zn   0.01078   0.33674   0.18687   1.000
    Zn4     Zn   0.20348   0.36247   0.90593   1.000
    Zn5     Zn   0.51084   0.16315   0.81310   1.000
    Zn6     Zn   0.29656   0.63760   0.40593   1.000
    Zn7     Zn   0.98914   0.83686   0.31312   1.000
    Zn8     Zn   0.20356   0.13746   0.40595   1.000
    Zn9     Zn   0.51076   0.33675   0.31307   1.000
    Zn10    Zn   0.29643   0.86259   0.90596   1.000
    Zn11    Zn   0.98920   0.66328   0.81310   1.000
    Zn12    Zn   0.79651   0.63756   0.09404   1.000
    Zn13    Zn   0.48914   0.83688   0.18687   1.000
    Zn14    Zn   0.70343   0.36243   0.59404   1.000
    Zn15    Zn   0.01084   0.16316   0.68685   1.000
    H16     H    0.68438   0.71477   0.66154   1.000
    H17     H    0.60221   0.94991   0.57489   1.000
    H18     H    0.45938   0.85746   0.61924   1.000
    H19     H    0.95007   0.81808   0.48523   1.000
    H20     H    0.70943   0.93456   0.44575   1.000
    H21     H    0.79933   0.91982   0.31687   1.000
    H22     H    0.93737   0.01514   0.58446   1.000
    H23     H    0.76397   0.94861   0.75000   1.000
    H24     H    0.87132   0.07909   0.79800   1.000
    H25     H    0.92522   0.82372   0.72292   1.000
    H26     H    0.90906   0.56129   0.67420   1.000
    H27     H    0.81969   0.65372   0.57067   1.000
    H28     H    0.81565   0.28527   0.16148   1.000
    H29     H    0.89777   0.05003   0.07491   1.000
    H30     H    0.04062   0.14249   0.11923   1.000
    H31     H    0.54988   0.18179   0.98522   1.000
    H32     H    0.79063   0.06554   0.94500   1.000
    H33     H    0.70074   0.08029   0.81680   1.000
    H34     H    0.56267   0.98484   0.08447   1.000
    H35     H    0.73597   0.05151   0.25000   1.000
    H36     H    0.62864   0.92102   0.29805   1.000
    H37     H    0.57472   0.17631   0.22286   1.000
    H38     H    0.59092   0.43873   0.17419   1.000
    H39     H    0.68032   0.34629   0.07066   1.000
    H40     H    0.31573   0.21455   0.83859   1.000
    H41     H    0.39752   0.44987   0.92500   1.000
    H42     H    0.54050   0.35738   0.88071   1.000
    H43     H    0.04986   0.31781   0.01472   1.000
    H44     H    0.29020   0.43461   0.05416   1.000
    H45     H    0.20035   0.41985   0.18305   1.000
    H46     H    0.06245   0.51508   0.91520   1.000
    H47     H    0.23629   0.44854   0.74999   1.000
    H48     H    0.12913   0.57931   0.70198   1.000
    H49     H    0.07468   0.32360   0.77702   1.000
    H50     H    0.09119   0.06117   0.82571   1.000
    H51     H    0.18051   0.15359   0.92921   1.000
    H52     H    0.18430   0.78554   0.33800   1.000
    H53     H    0.10261   0.55021   0.42499   1.000
    H54     H    0.95959   0.64262   0.38060   1.000
    H55     H    0.45026   0.68209   0.51472   1.000
    H56     H    0.20975   0.56563   0.55415   1.000
    H57     H    0.29960   0.58038   0.68305   1.000
    H58     H    0.43753   0.48496   0.41526   1.000
    H59     H    0.26383   0.55163   0.24992   1.000
    H60     H    0.37093   0.42079   0.20191   1.000
    H61     H    0.42549   0.67647   0.27710   1.000
    H62     H    0.40878   0.93891   0.32575   1.000
    H63     H    0.31956   0.84647   0.42920   1.000
    H64     H    0.31561   0.28526   0.33842   1.000
    H65     H    0.39778   0.05011   0.42507   1.000
    H66     H    0.54061   0.14256   0.38072   1.000
    H67     H    0.04992   0.18194   0.51473   1.000
    H68     H    0.29057   0.06546   0.55420   1.000
    H69     H    0.20067   0.08020   0.68300   1.000
    H70     H    0.06263   0.98489   0.41550   1.000
    H71     H    0.23602   0.05142   0.24996   1.000
    H72     H    0.12867   0.92093   0.20196   1.000
    H73     H    0.07477   0.17630   0.27704   1.000
    H74     H    0.09093   0.43873   0.32576   1.000
    H75     H    0.18030   0.34630   0.42900   1.000
    H76     H    0.18434   0.71475   0.83848   1.000
    H77     H    0.10222   0.94999   0.92505   1.000
    H78     H    0.95937   0.85753   0.88073   1.000
    H79     H    0.45011   0.81824   0.01474   1.000
    H80     H    0.20936   0.93449   0.05427   1.000
    H81     H    0.29925   0.91974   0.18315   1.000
    H82     H    0.43732   0.01518   0.91549   1.000
    H83     H    0.26402   0.94851   0.74990   1.000
    H84     H    0.37135   0.07900   0.70191   1.000
    H85     H    0.42528   0.82371   0.77710   1.000
    H86     H    0.40907   0.56129   0.82578   1.000
    H87     H    0.31967   0.65374   0.92930   1.000
    H88     H    0.68426   0.78548   0.16137   1.000
    H89     H    0.60248   0.55015   0.07490   1.000
    H90     H    0.45949   0.64264   0.11925   1.000
    H91     H    0.95013   0.68221   0.98524   1.000
    H92     H    0.70978   0.56543   0.94580   1.000
    H93     H    0.79964   0.58019   0.81691   1.000
    H94     H    0.93754   0.48494   0.08468   1.000
    H95     H    0.76370   0.55149   0.24997   1.000
    H96     H    0.87086   0.42071   0.29798   1.000
    H97     H    0.92532   0.67643   0.22294   1.000
    H98     H    0.90881   0.93885   0.17426   1.000
    H99     H    0.81948   0.84643   0.07075   1.000
    H100    H    0.81569   0.21448   0.66137   1.000
    H101    H    0.89738   0.44981   0.57490   1.000
    H102    H    0.04041   0.35741   0.61929   1.000
    H103    H    0.54974   0.31793   0.48524   1.000
    H104    H    0.79023   0.43441   0.44582   1.000
    H105    H    0.70039   0.41966   0.31691   1.000
    H106    H    0.56246   0.51506   0.58470   1.000
    H107    H    0.73616   0.44840   0.75000   1.000
    H108    H    0.62906   0.57923   0.79806   1.000
    H109    H    0.57450   0.32355   0.72286   1.000
    H110    H    0.59121   0.06111   0.67421   1.000
    H111    H    0.68043   0.15355   0.57068   1.000
    C112    C    0.64257   0.76634   0.64410   1.000
    C113    C    0.59839   0.88729   0.59960   1.000
    C114    C    0.52740   0.84144   0.62165   1.000
    C115    C    0.89728   0.84904   0.45704   1.000
    C116    C    0.77324   0.90913   0.43503   1.000
    C117    C    0.81777   0.90204   0.37118   1.000
    C118    C    0.90461   0.01485   0.63614   1.000
    C119    C    0.81594   0.98187   0.72276   1.000
    C120    C    0.86920   0.04625   0.74658   1.000
    C121    C    0.90884   0.76475   0.69548   1.000
    C122    C    0.89942   0.62960   0.66893   1.000
    C123    C    0.85509   0.67548   0.61762   1.000
    C124    C    0.85745   0.23367   0.14405   1.000
    C125    C    0.90160   0.11268   0.09900   1.000
    C126    C    0.97260   0.15853   0.12160   1.000
    C127    C    0.60270   0.15089   0.95700   1.000
    C128    C    0.72680   0.09092   0.93499   1.000
    C129    C    0.68227   0.09802   0.87114   1.000
    C130    C    0.59540   0.98516   0.13616   1.000
    C131    C    0.68403   0.01821   0.22281   1.000
    C132    C    0.63077   0.95383   0.24662   1.000
    C133    C    0.59111   0.23527   0.19544   1.000
    C134    C    0.60056   0.37043   0.16891   1.000
    C135    C    0.64490   0.32454   0.11760   1.000
    C136    C    0.35746   0.26617   0.85598   1.000
    C137    C    0.40144   0.38720   0.90036   1.000
    C138    C    0.47250   0.34134   0.87833   1.000
    C139    C    0.10257   0.34886   0.04290   1.000
    C140    C    0.22646   0.40911   0.06489   1.000
    C141    C    0.18196   0.40201   0.12874   1.000
    C142    C    0.09536   0.51484   0.86368   1.000
    C143    C    0.18425   0.48184   0.77718   1.000
    C144    C    0.13109   0.54638   0.75336   1.000
    C145    C    0.09114   0.26463   0.80445   1.000
    C146    C    0.10074   0.12948   0.83098   1.000
    C147    C    0.14505   0.17535   0.88228   1.000
    C148    C    0.14260   0.73391   0.35598   1.000
    C149    C    0.09865   0.61286   0.40035   1.000
    C150    C    0.02758   0.65869   0.37830   1.000
    C151    C    0.39750   0.65113   0.54290   1.000
    C152    C    0.27353   0.59105   0.56488   1.000
    C153    C    0.31802   0.59815   0.62874   1.000
    C154    C    0.40466   0.48522   0.36364   1.000
    C155    C    0.31582   0.51828   0.27712   1.000
    C156    C    0.36897   0.45372   0.25330   1.000
    C157    C    0.40898   0.73544   0.30452   1.000
    C158    C    0.39928   0.87060   0.33104   1.000
    C159    C    0.35501   0.82472   0.38234   1.000
    C160    C    0.35742   0.23368   0.35580   1.000
    C161    C    0.40160   0.11273   0.40037   1.000
    C162    C    0.47259   0.15858   0.37831   1.000
    C163    C    0.10271   0.15098   0.54293   1.000
    C164    C    0.22676   0.09090   0.56490   1.000
    C165    C    0.18223   0.09798   0.62878   1.000
    C166    C    0.09538   0.98517   0.36380   1.000
    C167    C    0.18405   0.01815   0.27720   1.000
    C168    C    0.13079   0.95377   0.25338   1.000
    C169    C    0.09115   0.23527   0.30448   1.000
    C170    C    0.10057   0.37043   0.33103   1.000
    C171    C    0.14491   0.32455   0.38234   1.000
    C172    C    0.14254   0.76635   0.85591   1.000
    C173    C    0.09839   0.88735   0.90037   1.000
    C174    C    0.02739   0.84149   0.87833   1.000
    C175    C    0.39729   0.84913   0.04295   1.000
    C176    C    0.27319   0.90910   0.06498   1.000
    C177    C    0.31772   0.90201   0.12882   1.000
    C178    C    0.40459   0.01486   0.86380   1.000
    C179    C    0.31596   0.98181   0.77716   1.000
    C180    C    0.36922   0.04619   0.75335   1.000
    C181    C    0.40888   0.76475   0.80450   1.000
    C182    C    0.39943   0.62959   0.83105   1.000
    C183    C    0.35509   0.67548   0.88236   1.000
    C184    C    0.64253   0.73385   0.14398   1.000
    C185    C    0.59854   0.61282   0.09960   1.000
    C186    C    0.52749   0.65868   0.12160   1.000
    C187    C    0.89742   0.65117   0.95706   1.000
    C188    C    0.77353   0.59093   0.93507   1.000
    C189    C    0.81803   0.59802   0.87122   1.000
    C190    C    0.90463   0.48518   0.13628   1.000
    C191    C    0.81574   0.51818   0.22278   1.000
    C192    C    0.86890   0.45364   0.24660   1.000
    C193    C    0.90885   0.73539   0.19551   1.000
    C194    C    0.89925   0.87055   0.16898   1.000
    C195    C    0.85494   0.82467   0.11769   1.000
    C196    C    0.85739   0.26612   0.64390   1.000
    C197    C    0.90134   0.38716   0.59962   1.000
    C198    C    0.97241   0.34133   0.62166   1.000
    C199    C    0.60249   0.34889   0.45706   1.000
    C200    C    0.72646   0.40898   0.43508   1.000
    C201    C    0.68197   0.40188   0.37120   1.000
    C202    C    0.59533   0.51480   0.63632   1.000
    C203    C    0.68417   0.48174   0.72284   1.000
    C204    C    0.63102   0.54630   0.74666   1.000
    C205    C    0.59102   0.26458   0.69544   1.000
    C206    C    0.60071   0.12942   0.66893   1.000
    C207    C    0.64498   0.17531   0.61762   1.000
    N208    N    0.55587   0.76458   0.64987   1.000
    N209    N    0.67150   0.83931   0.61390   1.000
    N210    N    0.89650   0.86391   0.38545   1.000
    N211    N    0.82396   0.87540   0.48949   1.000
    N212    N    0.92548   0.06696   0.69134   1.000
    N213    N    0.83864   0.96224   0.65249   1.000
    N214    N    0.93364   0.68671   0.71823   1.000
    N215    N    0.86122   0.76138   0.63474   1.000
    N216    N    0.94416   0.23542   0.14983   1.000
    N217    N    0.82851   0.16069   0.11393   1.000
    N218    N    0.60350   0.13607   0.88542   1.000
    N219    N    0.67603   0.12456   0.98946   1.000
    N220    N    0.57453   0.93308   0.19136   1.000
    N221    N    0.66136   0.03780   0.15252   1.000
    N222    N    0.56632   0.31332   0.21819   1.000
    N223    N    0.63875   0.23864   0.13470   1.000
    N224    N    0.44416   0.26443   0.85019   1.000
    N225    N    0.32842   0.33917   0.88600   1.000
    N226    N    0.10332   0.36377   0.11449   1.000
    N227    N    0.17582   0.37529   0.01045   1.000
    N228    N    0.07466   0.56708   0.80852   1.000
    N229    N    0.16135   0.46212   0.84739   1.000
    N230    N    0.06641   0.18659   0.78171   1.000
    N231    N    0.13881   0.26126   0.86517   1.000
    N232    N    0.05589   0.73561   0.35017   1.000
    N233    N    0.17165   0.66093   0.38606   1.000
    N234    N    0.39671   0.63627   0.61449   1.000
    N235    N    0.32422   0.62476   0.51043   1.000
    N236    N    0.42535   0.43298   0.30848   1.000
    N237    N    0.33869   0.53797   0.34734   1.000
    N238    N    0.43364   0.81348   0.28177   1.000
    N239    N    0.36131   0.73881   0.36525   1.000
    N240    N    0.44413   0.23544   0.35009   1.000
    N241    N    0.32849   0.16071   0.38601   1.000
    N242    N    0.10349   0.13611   0.61451   1.000
    N243    N    0.17603   0.12462   0.51048   1.000
    N244    N    0.07451   0.93306   0.30860   1.000
    N245    N    0.16135   0.03779   0.34748   1.000
    N246    N    0.06635   0.31331   0.28173   1.000
    N247    N    0.13877   0.23864   0.36522   1.000
    N248    N    0.05583   0.76460   0.85010   1.000
    N249    N    0.17149   0.83933   0.88603   1.000
    N250    N    0.39649   0.86395   0.11455   1.000
    N251    N    0.32396   0.87546   0.01050   1.000
    N252    N    0.42546   0.06694   0.80860   1.000
    N253    N    0.33863   0.96222   0.84744   1.000
    N254    N    0.43367   0.68671   0.78178   1.000
    N255    N    0.36124   0.76138   0.86526   1.000
    N256    N    0.55583   0.73560   0.14978   1.000
    N257    N    0.67156   0.66085   0.11390   1.000
    N258    N    0.89667   0.63625   0.88540   1.000
    N259    N    0.82417   0.62474   0.98952   1.000
    N260    N    0.92533   0.43295   0.19144   1.000
    N261    N    0.83864   0.53790   0.15258   1.000
    N262    N    0.93358   0.81343   0.21825   1.000
    N263    N    0.86118   0.73877   0.13479   1.000
    N264    N    0.94410   0.26441   0.64979   1.000
    N265    N    0.82834   0.33909   0.61390   1.000
    N266    N    0.60328   0.36375   0.38547   1.000
    N267    N    0.67577   0.37526   0.48953   1.000
    N268    N    0.57464   0.56704   0.69149   1.000
    N269    N    0.66130   0.46205   0.65262   1.000
    N270    N    0.56635   0.18654   0.71820   1.000
    N271    N    0.63868   0.26121   0.63471   1.000
loop_
    _geom_bond_atom_site_label_1
    _geom_bond_atom_site_label_2
    _geom_bond_distance
    _geom_bond_site_symmetry_2
    _ccdc_geom_bond_type
    N227   C139      1.35073      .   S
    N227   C140      1.38501      .   S
    N227   Zn4       1.99669  1_554   S
    N251   C175      1.35083      .   S
    N251   C176      1.38520      .   S
    N251   Zn10      1.99674  1_554   S
    H43    C139      1.08549      .   S
    H79    C175      1.08551      .   S
    C139   N226      1.34906      .   S
    C175   N250      1.34897      .   S
    H44    C140      1.08458      .   S
    H80    C176      1.08461      .   S
    C140   C141      1.37577      .   S
    C176   C177      1.37568      .   S
    H39    C135      1.08477      .   S
    H99    C195      1.08494      .   S
    H89    C185      1.08507      .   S
    H29    C125      1.08002      .   S
    H34    C130      1.08526      .   S
    H94    C190      1.08505      .   S
    Zn2    N217      2.00566      .   S
    Zn2    N223      2.02255      .   S
    Zn2    N221      2.01127      .   S
    Zn2    N219      1.99691  1_554   S
    Zn12   N257      2.00500      .   S
    Zn12   N263      2.02310      .   S
    Zn12   N261      2.01082      .   S
    Zn12   N259      1.99669  1_554   S
    C125   N217      1.38760      .   S
    C125   C126      1.38005      .   S
    C185   N257      1.38540      .   S
    C185   C186      1.37675      .   S
    N257   C184      1.34952      .   S
    N217   C124      1.34963      .   S
    N226   C141      1.38413      .   S
    N226   Zn3       2.01067      .   S
    N250   C177      1.38415      .   S
    N250   Zn13      2.01099      .   S
    C135   N223      1.38604      .   S
    C135   C134      1.37671      .   S
    C195   N263      1.38607      .   S
    C195   C194      1.37664      .   S
    H30    C126      1.08479  1_455   S
    H90    C186      1.08472      .   S
    C126   N216      1.38530      .   S
    C186   N256      1.38528      .   S
    C141   H45       1.08416      .   S
    C177   H81       1.08425      .   S
    N223   C133      1.34873      .   S
    N263   C193      1.34866      .   S
    C130   N221      1.34868  1_565   S
    C130   N220      1.34925      .   S
    C190   N261      1.34880      .   S
    C190   N260      1.34926      .   S
    C184   N256      1.34878      .   S
    C184   H88       1.08498      .   S
    C124   N216      1.34882      .   S
    C124   H28       1.08498      .   S
    N256   Zn13      2.01432      .   S
    N216   Zn3       2.01513  1_655   S
    N221   C131      1.38542      .   S
    N261   C191      1.38533      .   S
    C134   H38       1.08478      .   S
    C134   N222      1.38550      .   S
    C194   H98       1.08478      .   S
    C194   N262      1.38547      .   S
    Zn3    N260      2.00779  1_455   S
    Zn3    N246      1.99399      .   S
    Zn13   N220      2.00826      .   S
    Zn13   N238      1.99431      .   S
    N220   C132      1.38492      .   S
    N260   C192      1.38488      .   S
    C133   N222      1.34913      .   S
    C133   H37       1.08507      .   S
    C193   N262      1.34917      .   S
    C193   H97       1.08511      .   S
    H60    C156      1.08466      .   S
    H72    C168      1.08456      .   S
    N222   Zn9       1.99413      .   S
    N262   Zn7       1.99423      .   S
    C191   C192      1.37694      .   S
    C191   H95       1.08486      .   S
    C131   C132      1.37676  1_545   S
    C131   H35       1.08428      .   S
    C192   H96       1.08466      .   S
    C132   H36       1.08464      .   S
    H59    C155      1.08486      .   S
    H71    C167      1.08483      .   S
    C156   C155      1.37695      .   S
    C156   N236      1.38494      .   S
    C168   C167      1.37677  1_565   S
    C168   N244      1.38459      .   S
    H73    C169      1.08510      .   S
    H61    C157      1.08510      .   S
    C155   N237      1.38539      .   S
    C167   N245      1.38543      .   S
    N246   C169      1.34917      .   S
    N246   C170      1.38553      .   S
    N238   C157      1.34913      .   S
    N238   C158      1.38552      .   S
    C169   N247      1.34854      .   S
    C157   N239      1.34873      .   S
    N236   Zn9       2.00777      .   S
    N236   C154      1.34912      .   S
    N244   Zn7       2.00816  1_455   S
    N244   C166      1.34929      .   S
    Zn9    N240      2.01502      .   S
    Zn9    N266      2.01055      .   S
    Zn7    N232      2.01438  1_655   S
    Zn7    N210      2.01083      .   S
    H21    C117      1.08407      .   S
    H105   C201      1.08376      .   S
    H62    C158      1.08479      .   S
    H74    C170      1.08478      .   S
    C170   C171      1.37668      .   S
    C158   C159      1.37661      .   S
    H52    C148      1.08834      .   S
    H64    C160      1.08462      .   S
    N237   C154      1.34873      .   S
    N237   Zn6       2.01069      .   S
    N245   C166      1.34856  1_545   S
    N245   Zn8       2.01109      .   S
    N240   C160      1.34872      .   S
    N240   C162      1.38505      .   S
    N232   C148      1.34877      .   S
    N232   C150      1.38495      .   S
    C160   N241      1.35011      .   S
    C148   N233      1.34949      .   S
    C154   H58       1.08518      .   S
    C166   H70       1.08558      .   S
    N247   C171      1.38607      .   S
    N247   Zn8       2.02267      .   S
    N239   C159      1.38607      .   S
    N239   Zn6       2.02341      .   S
    C117   N210      1.38417      .   S
    C117   C116      1.37585      .   S
    C201   N266      1.38421      .   S
    C201   C200      1.37614      .   S
    C150   H54       1.08474  1_455   S
    C150   C149      1.37697      .   S
    C162   H66       1.08476      .   S
    C162   C161      1.37694      .   S
    C159   H63       1.08365      .   S
    C171   H75       1.08043      .   S
    N210   C115      1.34899      .   S
    N266   C199      1.34897      .   S
    N241   C161      1.38546      .   S
    N241   Zn8       2.00557      .   S
    N233   C149      1.38537      .   S
    N233   Zn6       2.00464      .   S
    C149   H53       1.08457      .   S
    C161   H65       1.08456      .   S
    Zn6    N235      1.99642      .   S
    Zn8    N243      1.99656      .   S
    C116   H20       1.08461      .   S
    C116   N211      1.38515      .   S
    C200   H104      1.08460      .   S
    C200   N267      1.38510      .   S
    C115   H19       1.08548      .   S
    C115   N211      1.35079      .   S
    C199   H103      1.08551      .   S
    C199   N267      1.35082      .   S
    N211   Zn0       1.99656      .   S
    N267   Zn14      1.99659      .   S
    N235   C151      1.35085      .   S
    N235   C152      1.38509      .   S
    N243   C163      1.35079      .   S
    N243   C164      1.38463      .   S
    H55    C151      1.08549      .   S
    H67    C163      1.08554      .   S
    C151   N234      1.34896      .   S
    C163   N242      1.34881      .   S
    H56    C152      1.08457      .   S
    H68    C164      1.08454      .   S
    C152   C153      1.37583      .   S
    C164   C165      1.37633      .   S
    H27    C123      1.08475      .   S
    H111   C207      1.08483      .   S
    H17    C113      1.08464      .   S
    H101   C197      1.08519      .   S
    H22    C118      1.08526      .   S
    H106   C202      1.08516      .   S
    Zn0    N209      2.00534      .   S
    Zn0    N215      2.02265      .   S
    Zn0    N213      2.01109      .   S
    Zn14   N265      2.00464      .   S
    Zn14   N271      2.02336      .   S
    Zn14   N269      2.01058      .   S
    C113   N209      1.38523      .   S
    C113   C114      1.37689      .   S
    C197   N265      1.38534      .   S
    C197   C198      1.37692      .   S
    N209   C112      1.35004      .   S
    N265   C196      1.34888      .   S
    N234   C153      1.38412      .   S
    N234   Zn1       1.99951      .   S
    N242   C165      1.38418      .   S
    N242   Zn15      2.01099      .   S
    C123   N215      1.38607      .   S
    C123   C122      1.37668      .   S
    C207   N271      1.38607      .   S
    C207   C206      1.37672      .   S
    H18    C114      1.08475      .   S
    H102   C198      1.08480  1_455   S
    C114   N208      1.38504      .   S
    C198   N264      1.38495      .   S
    C153   H57       1.08409      .   S
    C165   H69       1.08252      .   S
    N271   C205      1.34872      .   S
    N215   C121      1.34857      .   S
    C118   N213      1.34868  1_545   S
    C118   N212      1.34929      .   S
    C202   N269      1.34873      .   S
    C202   N268      1.34928      .   S
    C196   N264      1.34889      .   S
    C196   H100      1.08548      .   S
    C112   N208      1.34881      .   S
    C112   H16       1.08495      .   S
    N264   Zn15      2.01439  1_655   S
    N208   Zn1       2.00945      .   S
    N213   C119      1.38526      .   S
    N269   C203      1.38539      .   S
    C122   H26       1.08478      .   S
    C122   N214      1.38553      .   S
    C206   H110      1.08477      .   S
    C206   N270      1.38551      .   S
    Zn1    N268      2.00856      .   S
    Zn1    N254      2.00888      .   S
    Zn15   N212      2.00813  1_455   S
    Zn15   N230      1.99409      .   S
    N212   C120      1.38486      .   S
    N268   C204      1.38480      .   S
    C205   N270      1.34919      .   S
    C205   H109      1.08511      .   S
    C121   N214      1.34916      .   S
    C121   H25       1.08510      .   S
    H84    C180      1.08481      .   S
    H48    C144      1.08466      .   S
    N270   Zn5       1.99431      .   S
    N214   Zn11      1.99412      .   S
    C119   C120      1.37677  1_565   S
    C119   H23       1.08483      .   S
    C203   C204      1.37696      .   S
    C203   H107      1.08451      .   S
    C120   H24       1.08457      .   S
    C204   H108      1.08481      .   S
    H83    C179      1.08488      .   S
    H47    C143      1.08485      .   S
    C180   C179      1.37675  1_545   S
    C180   N252      1.38479      .   S
    C144   C143      1.37695      .   S
    C144   N228      1.38488      .   S
    H49    C145      1.08512      .   S
    H85    C181      1.08488      .   S
    C179   N253      1.38525      .   S
    C143   N229      1.38550      .   S
    N230   C145      1.34916      .   S
    N230   C146      1.38548      .   S
    N254   C181      1.34894      .   S
    N254   C182      1.38540      .   S
    C145   N231      1.34864      .   S
    C181   N255      1.34905      .   S
    N228   Zn11      2.00784  1_455   S
    N228   C142      1.34927      .   S
    N252   Zn5       2.00827      .   S
    N252   C178      1.34927      .   S
    Zn5    N224      2.01431      .   S
    Zn5    N218      2.01103      .   S
    Zn11   N248      2.01487  1_655   S
    Zn11   N258      2.00968      .   S
    H33    C129      1.08442      .   S
    H93    C189      1.08414      .   S
    H50    C146      1.08477      .   S
    H86    C182      1.08477      .   S
    C146   C147      1.37677      .   S
    C182   C183      1.37672      .   S
    H76    C172      1.08498      .   S
    H40    C136      1.08498      .   S
    N229   C142      1.34875      .   S
    N229   Zn4       2.01078      .   S
    N253   C178      1.34867  1_565   S
    N253   Zn10      2.01135      .   S
    N248   C172      1.34887      .   S
    N248   C174      1.38530      .   S
    N224   C136      1.34875      .   S
    N224   C138      1.38500      .   S
    C172   N249      1.34961      .   S
    C136   N225      1.34907      .   S
    C142   H46       1.08373      .   S
    C178   H82       1.08526      .   S
    N231   C147      1.38611      .   S
    N231   Zn4       2.02316      .   S
    N255   C183      1.38606      .   S
    N255   Zn10      2.02265      .   S
    C129   N218      1.38418      .   S
    C129   C128      1.37584      .   S
    C189   N258      1.38386      .   S
    C189   C188      1.37576      .   S
    C138   H42       1.08473      .   S
    C138   C137      1.37692      .   S
    C174   H78       1.08483  1_455   S
    C174   C173      1.37693      .   S
    C147   H51       1.08480      .   S
    C183   H87       1.08477      .   S
    N258   C187      1.35032      .   S
    N218   C127      1.34859      .   S
    N225   C137      1.38562      .   S
    N225   Zn4       2.00525      .   S
    N249   C173      1.38546      .   S
    N249   Zn10      2.00563      .   S
    C137   H41       1.08460      .   S
    C173   H77       1.08460      .   S
    C128   H32       1.08231      .   S
    C128   N219      1.38504      .   S
    C188   H92       1.08460      .   S
    C188   N259      1.38511      .   S
    C127   H31       1.08562      .   S
    C127   N219      1.35090      .   S
    C187   H91       1.08551      .   S
    C187   N259      1.35081      .   S
