# CIF file generated by openbabel 2.4.90, see http://openbabel.sf.net
data_I
_chemical_name_common ''
_cell_length_a 17.555
_cell_length_b 17.545
_cell_length_c 15.913
_cell_angle_alpha 90
_cell_angle_beta 89.999
_cell_angle_gamma 92.602
_space_group_name_H-M_alt 'P 1'
_space_group_name_Hall 'P 1'
loop_
    _symmetry_equiv_pos_as_xyz
    x,y,z
loop_
    _atom_site_label
    _atom_site_type_symbol
    _atom_site_fract_x
    _atom_site_fract_y
    _atom_site_fract_z
    _atom_site_occupancy
    H0      H    0.34753   0.37832   0.25761   1.000
    H1      H    0.34753   0.87831   0.25760   1.000
    H2      H    0.84754   0.37832   0.25761   1.000
    H3      H    0.84754   0.87831   0.25761   1.000
    H4      H    0.18490   0.03451   0.18792   1.000
    H5      H    0.18491   0.53450   0.18792   1.000
    H6      H    0.68491   0.03451   0.18792   1.000
    H7      H    0.68492   0.53450   0.18792   1.000
    H8      H    0.15247   0.12165   0.75757   1.000
    H9      H    0.15247   0.62164   0.75757   1.000
    H10     H    0.65248   0.12165   0.75757   1.000
    H11     H    0.65248   0.62164   0.75757   1.000
    H12     H    0.31510   0.46547   0.68789   1.000
    H13     H    0.31511   0.96546   0.68789   1.000
    H14     H    0.81511   0.46547   0.68789   1.000
    H15     H    0.81512   0.96546   0.68789   1.000
    H16     H    0.37868   0.34769   0.75752   1.000
    H17     H    0.37868   0.84768   0.75752   1.000
    H18     H    0.87869   0.34769   0.75752   1.000
    H19     H    0.87869   0.84768   0.75752   1.000
    H20     H    0.03446   0.18462   0.68802   1.000
    H21     H    0.03446   0.68461   0.68802   1.000
    H22     H    0.53447   0.18462   0.68802   1.000
    H23     H    0.53447   0.68461   0.68802   1.000
    H24     H    0.12133   0.15229   0.25756   1.000
    H25     H    0.12133   0.65228   0.25756   1.000
    H26     H    0.62134   0.15229   0.25756   1.000
    H27     H    0.62134   0.65228   0.25756   1.000
    H28     H    0.46555   0.31535   0.18804   1.000
    H29     H    0.46555   0.81535   0.18804   1.000
    H30     H    0.96556   0.31536   0.18804   1.000
    H31     H    0.96556   0.81535   0.18804   1.000
    H32     H    0.28897   0.21143   0.48435   1.000
    H33     H    0.28898   0.71142   0.48435   1.000
    H34     H    0.78898   0.21143   0.48435   1.000
    H35     H    0.78899   0.71142   0.48435   1.000
    H36     H    0.44831   0.05133   0.55436   1.000
    H37     H    0.44831   0.55132   0.55436   1.000
    H38     H    0.94832   0.05133   0.55436   1.000
    H39     H    0.94832   0.55132   0.55436   1.000
    H40     H    0.21104   0.28854   0.98432   1.000
    H41     H    0.21104   0.78853   0.98432   1.000
    H42     H    0.71105   0.28854   0.98432   1.000
    H43     H    0.71105   0.78853   0.98432   1.000
    H44     H    0.05170   0.44864   0.05435   1.000
    H45     H    0.05170   0.94863   0.05435   1.000
    H46     H    0.55171   0.44864   0.05435   1.000
    H47     H    0.55171   0.94863   0.05435   1.000
    C48     C    0.31961   0.43093   0.24504   1.000
    C49     C    0.31961   0.93092   0.24504   1.000
    C50     C    0.81962   0.43093   0.24504   1.000
    C51     C    0.81962   0.93092   0.24504   1.000
    C52     C    0.23684   0.01025   0.21022   1.000
    C53     C    0.23684   0.51024   0.21022   1.000
    C54     C    0.73685   0.01025   0.21022   1.000
    C55     C    0.73685   0.51024   0.21022   1.000
    C56     C    0.18039   0.06904   0.74501   1.000
    C57     C    0.18039   0.56903   0.74501   1.000
    C58     C    0.68040   0.06904   0.74501   1.000
    C59     C    0.68040   0.56903   0.74501   1.000
    C60     C    0.26317   0.48973   0.71019   1.000
    C61     C    0.26317   0.98972   0.71019   1.000
    C62     C    0.76318   0.48973   0.71019   1.000
    C63     C    0.76318   0.98972   0.71019   1.000
    C64     C    0.43120   0.31964   0.74490   1.000
    C65     C    0.43121   0.81963   0.74490   1.000
    C66     C    0.93121   0.31964   0.74490   1.000
    C67     C    0.93122   0.81963   0.74498   1.000
    C68     C    0.01031   0.23665   0.71020   1.000
    C69     C    0.01031   0.73664   0.71020   1.000
    C70     C    0.51032   0.23665   0.71028   1.000
    C71     C    0.51032   0.73664   0.71020   1.000
    C72     C    0.06881   0.18034   0.24502   1.000
    C73     C    0.06881   0.68033   0.24502   1.000
    C74     C    0.56881   0.18034   0.24502   1.000
    C75     C    0.56882   0.68033   0.24502   1.000
    C76     C    0.48970   0.26332   0.21030   1.000
    C77     C    0.48970   0.76332   0.21030   1.000
    C78     C    0.98971   0.26333   0.21030   1.000
    C79     C    0.98971   0.76332   0.21030   1.000
    C80     C    0.33162   0.16860   0.48194   1.000
    C81     C    0.33162   0.66859   0.48194   1.000
    C82     C    0.83163   0.16860   0.48194   1.000
    C83     C    0.83163   0.66859   0.48194   1.000
    C84     C    0.41236   0.08747   0.51764   1.000
    C85     C    0.41236   0.58746   0.51764   1.000
    C86     C    0.91237   0.08747   0.51764   1.000
    C87     C    0.91237   0.58746   0.51764   1.000
    C88     C    0.16839   0.33137   0.98191   1.000
    C89     C    0.16840   0.83136   0.98191   1.000
    C90     C    0.66840   0.33137   0.98191   1.000
    C91     C    0.66841   0.83136   0.98191   1.000
    C92     C    0.08765   0.41250   0.01760   1.000
    C93     C    0.08765   0.91249   0.01760   1.000
    C94     C    0.58766   0.41250   0.01760   1.000
    C95     C    0.58766   0.91249   0.01760   1.000
    N96     N    0.35075   0.00010   0.26075   1.000
    N97     N    0.35075   0.50009   0.26075   1.000
    N98     N    0.85076   0.00010   0.26075   1.000
    N99     N    0.85076   0.50009   0.26075   1.000
    N100    N    0.29712   0.05167   0.23840   1.000
    N101    N    0.29712   0.55166   0.23840   1.000
    N102    N    0.79713   0.05167   0.23840   1.000
    N103    N    0.79713   0.55166   0.23840   1.000
    N104    N    0.24836   0.43439   0.21333   1.000
    N105    N    0.24837   0.93438   0.21333   1.000
    N106    N    0.74838   0.43439   0.21333   1.000
    N107    N    0.74838   0.93438   0.21333   1.000
    N108    N    0.14926   0.49987   0.76072   1.000
    N109    N    0.14926   0.99986   0.76072   1.000
    N110    N    0.64926   0.49987   0.76072   1.000
    N111    N    0.64927   0.99986   0.76072   1.000
    N112    N    0.20289   0.44830   0.73841   1.000
    N113    N    0.20289   0.94829   0.73841   1.000
    N114    N    0.70290   0.44830   0.73841   1.000
    N115    N    0.70290   0.94829   0.73841   1.000
    N116    N    0.25164   0.06558   0.71330   1.000
    N117    N    0.25164   0.56557   0.71330   1.000
    N118    N    0.75165   0.06558   0.71330   1.000
    N119    N    0.75165   0.56557   0.71330   1.000
    N120    N    0.00036   0.35068   0.76073   1.000
    N121    N    0.00036   0.85067   0.76073   1.000
    N122    N    0.50037   0.35068   0.76073   1.000
    N123    N    0.50037   0.85067   0.76073   1.000
    N124    N    0.05180   0.29691   0.73847   1.000
    N125    N    0.05181   0.79690   0.73847   1.000
    N126    N    0.55181   0.29691   0.73847   1.000
    N127    N    0.55182   0.79690   0.73847   1.000
    N128    N    0.43454   0.24831   0.71337   1.000
    N129    N    0.43454   0.74830   0.71330   1.000
    N130    N    0.93455   0.24831   0.71337   1.000
    N131    N    0.93455   0.74830   0.71330   1.000
    N132    N    0.49965   0.14929   0.26076   1.000
    N133    N    0.49966   0.64929   0.26076   1.000
    N134    N    0.99966   0.14929   0.26076   1.000
    N135    N    0.99967   0.64929   0.26076   1.000
    N136    N    0.44820   0.20306   0.23850   1.000
    N137    N    0.44821   0.70305   0.23850   1.000
    N138    N    0.94821   0.20306   0.23851   1.000
    N139    N    0.94822   0.70305   0.23851   1.000
    N140    N    0.06547   0.25167   0.21339   1.000
    N141    N    0.06547   0.75166   0.21339   1.000
    N142    N    0.56548   0.25166   0.21339   1.000
    N143    N    0.56548   0.75166   0.21339   1.000
    N144    N    0.35885   0.14126   0.41047   1.000
    N145    N    0.35885   0.64125   0.41047   1.000
    N146    N    0.85886   0.14126   0.41047   1.000
    N147    N    0.85886   0.64125   0.41047   1.000
    N148    N    0.41128   0.08857   0.43359   1.000
    N149    N    0.41129   0.58856   0.43359   1.000
    N150    N    0.91129   0.08857   0.43359   1.000
    N151    N    0.91129   0.58856   0.43359   1.000
    N152    N    0.36332   0.13674   0.55071   1.000
    N153    N    0.36332   0.63673   0.55071   1.000
    N154    N    0.86333   0.13674   0.55071   1.000
    N155    N    0.86333   0.63673   0.55071   1.000
    N156    N    0.14117   0.35871   0.91044   1.000
    N157    N    0.14117   0.85870   0.91044   1.000
    N158    N    0.64118   0.35871   0.91044   1.000
    N159    N    0.64118   0.85870   0.91044   1.000
    N160    N    0.08873   0.41139   0.93356   1.000
    N161    N    0.08873   0.91138   0.93356   1.000
    N162    N    0.58874   0.41139   0.93356   1.000
    N163    N    0.58874   0.91138   0.93356   1.000
    N164    N    0.13669   0.36323   0.05070   1.000
    N165    N    0.13670   0.86322   0.05070   1.000
    N166    N    0.63670   0.36323   0.05070   1.000
    N167    N    0.63671   0.86322   0.05070   1.000
loop_
    _geom_bond_atom_site_label_1
    _geom_bond_atom_site_label_2
    _geom_bond_distance
    _geom_bond_site_symmetry_2
    _ccdc_geom_bond_type
    C95    N167      1.35410      .   S
    C95    H47       1.08568      .   S
    C95    N163      1.33762  1_554   S
    C94    N166      1.35411      .   S
    C94    H46       1.08567      .   S
    C94    N162      1.33762  1_554   S
    C93    N165      1.35411      .   S
    C93    H45       1.08567      .   S
    C93    N161      1.33762  1_554   S
    C92    N164      1.35410      .   S
    C92    H44       1.08567      .   S
    C92    N160      1.33762  1_554   S
    N164   C88       1.35970  1_554   S
    N165   C89       1.35969  1_554   S
    N166   C90       1.35969  1_554   S
    N167   C91       1.35970  1_554   S
    H7     C55       1.08335      .   S
    H6     C54       1.08333      .   S
    H5     C53       1.08333      .   S
    H4     C52       1.08333      .   S
    H28    C76       1.08336      .   S
    H29    C77       1.08335      .   S
    H30    C78       1.08335      .   S
    H31    C79       1.08336      .   S
    C53    N104      1.35599      .   S
    C53    N101      1.33390      .   S
    C54    N107      1.35632  1_545   S
    C54    N102      1.33391      .   S
    C52    N105      1.35634  1_545   S
    C52    N100      1.33391      .   S
    C55    N106      1.35599      .   S
    C55    N103      1.33390      .   S
    C78    N140      1.35565  1_655   S
    C78    N138      1.33423      .   S
    C79    N141      1.35563  1_655   S
    C79    N139      1.33424      .   S
    C77    N143      1.35598      .   S
    C77    N137      1.33419      .   S
    C76    N142      1.35598      .   S
    C76    N136      1.33418      .   S
    N107   C51       1.35257      .   S
    N104   C48       1.35257      .   S
    N105   C49       1.35257      .   S
    N106   C50       1.35257      .   S
    N140   C72       1.35264      .   S
    N141   C73       1.35265      .   S
    N142   C74       1.35263      .   S
    N143   C75       1.35265      .   S
    N102   N98       1.38164      .   S
    N103   N99       1.38163      .   S
    N101   N97       1.38164      .   S
    N100   N96       1.38164      .   S
    N136   N132      1.38147      .   S
    N137   N133      1.38147      .   S
    N138   N134      1.38141      .   S
    N139   N135      1.38141      .   S
    C75    H27       1.08322      .   S
    C75    N133      1.33170      .   S
    C74    H26       1.08322      .   S
    C74    N132      1.33171      .   S
    C72    H24       1.08323      .   S
    C72    N134      1.33139  1_455   S
    C73    H25       1.08322      .   S
    C73    N135      1.33140  1_455   S
    C50    H2        1.08323      .   S
    C50    N99       1.33172      .   S
    C48    H0        1.08323      .   S
    C48    N97       1.33173      .   S
    C49    H1        1.08319      .   S
    C49    N96       1.33201  1_565   S
    C51    H3        1.08323      .   S
    C51    N98       1.33199  1_565   S
    N144   N148      1.38356      .   S
    N144   C80       1.33153      .   S
    N145   N149      1.38356      .   S
    N145   C81       1.33153      .   S
    N146   N150      1.38356      .   S
    N146   C82       1.33152      .   S
    N147   N151      1.38355      .   S
    N147   C83       1.33153      .   S
    N148   C84       1.33778      .   S
    N149   C85       1.33778      .   S
    N150   C86       1.33778      .   S
    N151   C87       1.33778      .   S
    C80    H32       1.08520      .   S
    C80    N152      1.35939      .   S
    C81    H33       1.08520      .   S
    C81    N153      1.35940      .   S
    C82    H34       1.08521      .   S
    C82    N154      1.35939      .   S
    C83    H35       1.08518      .   S
    C83    N155      1.35940      .   S
    C84    N152      1.35394      .   S
    C84    H36       1.08538      .   S
    C87    N155      1.35394      .   S
    C87    H39       1.08538      .   S
    C85    N153      1.35392      .   S
    C85    H37       1.08539      .   S
    C86    N154      1.35392      .   S
    C86    H38       1.08539      .   S
    H12    C60       1.08334      .   S
    H13    C61       1.08334      .   S
    H14    C62       1.08334      .   S
    H15    C63       1.08334      .   S
    H23    C71       1.08294      .   S
    H22    C70       1.08335      .   S
    H21    C69       1.08294      .   S
    H20    C68       1.08293      .   S
    C60    N117      1.35598      .   S
    C60    N112      1.33414      .   S
    C61    N116      1.35632  1_565   S
    C61    N113      1.33414      .   S
    C62    N119      1.35596      .   S
    C62    N114      1.33414      .   S
    C63    N118      1.35632  1_565   S
    C63    N115      1.33413      .   S
    C68    N130      1.35569  1_455   S
    C68    N124      1.33458      .   S
    C69    N131      1.35565  1_455   S
    C69    N125      1.33458      .   S
    C71    N129      1.35599      .   S
    C71    N127      1.33458      .   S
    C70    N128      1.35597      .   S
    C70    N126      1.33415      .   S
    N118   C58       1.35258      .   S
    N117   C57       1.35258      .   S
    N116   C56       1.35258      .   S
    N131   C67       1.35295      .   S
    N129   C65       1.35248      .   S
    N119   C59       1.35258      .   S
    N128   C64       1.35205      .   S
    N130   C66       1.35207      .   S
    N114   N110      1.38147      .   S
    N113   N109      1.38147      .   S
    N115   N111      1.38147      .   S
    N112   N108      1.38148      .   S
    N127   N123      1.38148      .   S
    N126   N122      1.38147      .   S
    N125   N121      1.38147      .   S
    N124   N120      1.38148      .   S
    C66    H18       1.08347      .   S
    C66    N120      1.33167  1_655   S
    C65    H17       1.08347      .   S
    C65    N123      1.33197      .   S
    C64    H16       1.08348      .   S
    C64    N122      1.33198      .   S
    C67    H19       1.08325      .   S
    C67    N121      1.33143  1_655   S
    C59    H11       1.08321      .   S
    C59    N110      1.33173      .   S
    C58    H10       1.08320      .   S
    C58    N111      1.33201  1_545   S
    C57    H9        1.08321      .   S
    C57    N108      1.33173      .   S
    C56    H8        1.08322      .   S
    C56    N109      1.33200  1_545   S
    N156   N160      1.38355      .   S
    N156   C88       1.33152      .   S
    N157   N161      1.38355      .   S
    N157   C89       1.33152      .   S
    N158   N162      1.38356      .   S
    N158   C90       1.33151      .   S
    N159   N163      1.38355      .   S
    N159   C91       1.33152      .   S
    C90    H42       1.08521      .   S
    C88    H40       1.08520      .   S
    C89    H41       1.08520      .   S
    C91    H43       1.08520      .   S
