# CIF file generated by openbabel 2.4.90, see http://openbabel.sf.net
data_I
_chemical_name_common ''
_cell_length_a 17.555
_cell_length_b 17.545
_cell_length_c 15.913
_cell_angle_alpha 90
_cell_angle_beta 89.999
_cell_angle_gamma 92.602
_space_group_name_H-M_alt 'P 1'
_space_group_name_Hall 'P 1'
loop_
    _symmetry_equiv_pos_as_xyz
    x,y,z
loop_
    _atom_site_label
    _atom_site_type_symbol
    _atom_site_fract_x
    _atom_site_fract_y
    _atom_site_fract_z
    _atom_site_occupancy
    Cd0     Cd   0.46494   0.53496   0.32065   1.000
    Cd1     Cd   0.96495   0.03497   0.32065   1.000
    Cd2     Cd   0.96495   0.53496   0.32065   1.000
    Cd3     Cd   0.17309   0.32681   0.18737   1.000
    Cd4     Cd   0.17309   0.82680   0.18737   1.000
    Cd5     Cd   0.67310   0.32681   0.18737   1.000
    Cd6     Cd   0.67310   0.82680   0.18737   1.000
    Cd7     Cd   0.32028   0.17969   0.27074   1.000
    Cd8     Cd   0.32028   0.67968   0.27074   1.000
    Cd9     Cd   0.82029   0.17969   0.27074   1.000
    Cd10    Cd   0.82029   0.67968   0.27074   1.000
    Cd11    Cd   0.03507   0.46499   0.82063   1.000
    Cd12    Cd   0.03507   0.96498   0.82063   1.000
    Cd13    Cd   0.53508   0.46499   0.82063   1.000
    Cd14    Cd   0.53508   0.96498   0.82063   1.000
    Cd15    Cd   0.32692   0.17316   0.68737   1.000
    Cd16    Cd   0.32692   0.67315   0.68737   1.000
    Cd17    Cd   0.82693   0.17316   0.68737   1.000
    Cd18    Cd   0.82693   0.67315   0.68737   1.000
    Cd19    Cd   0.17973   0.32028   0.77070   1.000
    Cd20    Cd   0.17973   0.82027   0.77070   1.000
    Cd21    Cd   0.67974   0.32028   0.77070   1.000
    Cd22    Cd   0.67974   0.82027   0.77070   1.000
    Cd23    Cd   0.46494   0.03497   0.32065   1.000
    Cl24    Cl   0.72948   0.77020   0.33786   1.000
    Cl25    Cl   0.26912   0.23076   0.12643   1.000
    Cl26    Cl   0.26912   0.73075   0.12643   1.000
    Cl27    Cl   0.76913   0.23076   0.12643   1.000
    Cl28    Cl   0.05806   0.44252   0.28649   1.000
    Cl29    Cl   0.05806   0.94251   0.28649   1.000
    Cl30    Cl   0.55807   0.44251   0.28649   1.000
    Cl31    Cl   0.55807   0.94251   0.28649   1.000
    Cl32    Cl   0.22946   0.27021   0.33786   1.000
    Cl33    Cl   0.22947   0.77020   0.33786   1.000
    Cl34    Cl   0.72947   0.27021   0.33786   1.000
    Cl35    Cl   0.76913   0.73075   0.12643   1.000
    Cl36    Cl   0.44195   0.05745   0.78645   1.000
    Cl37    Cl   0.44195   0.55744   0.78645   1.000
    Cl38    Cl   0.94196   0.05745   0.78645   1.000
    Cl39    Cl   0.94196   0.55744   0.78645   1.000
    Cl40    Cl   0.27054   0.22976   0.83784   1.000
    Cl41    Cl   0.27054   0.72975   0.83784   1.000
    Cl42    Cl   0.77055   0.22976   0.83784   1.000
    Cl43    Cl   0.77055   0.72975   0.83784   1.000
    Cl44    Cl   0.23090   0.26922   0.62641   1.000
    Cl45    Cl   0.23090   0.76921   0.62641   1.000
    Cl46    Cl   0.73091   0.26922   0.62641   1.000
    Cl47    Cl   0.73091   0.76921   0.62641   1.000
loop_
    _geom_bond_atom_site_label_1
    _geom_bond_atom_site_label_2
    _geom_bond_distance
    _geom_bond_site_symmetry_2
    _ccdc_geom_bond_type
    Cl27   Cd5       2.62306      .   S
    Cl26   Cd4       2.62306      .   S
    Cl25   Cd3       2.62306      .   S
    Cl35   Cd6       2.62306      .   S
    Cd7    Cl32      2.53661      .   S
    Cd8    Cl33      2.53662      .   S
    Cd9    Cl34      2.53662      .   S
    Cd10   Cl24      2.53661      .   S
    Cl28   Cd2       2.41639  1_455   S
    Cl31   Cd23      2.41692  1_565   S
    Cl30   Cd0       2.41663      .   S
    Cl29   Cd1       2.41667  1_465   S
    Cl47   Cd18      2.62312      .   S
    Cl46   Cd17      2.62314      .   S
    Cl45   Cd16      2.62314      .   S
    Cl44   Cd15      2.62312      .   S
    Cd22   Cl43      2.53675      .   S
    Cd19   Cl40      2.53676      .   S
    Cd20   Cl41      2.53676      .   S
    Cd21   Cl42      2.53675      .   S
    Cl39   Cd11      2.41643  1_655   S
    Cl38   Cd12      2.41672  1_645   S
    Cl37   Cd13      2.41668      .   S
    Cl36   Cd14      2.41697  1_545   S
