# CIF file generated by openbabel 2.4.90, see http://openbabel.sf.net
data_I
_chemical_name_common ''
_cell_length_a 21.409
_cell_length_b 12.775
_cell_length_c 12.76
_cell_angle_alpha 106.896
_cell_angle_beta 94.45
_cell_angle_gamma 85.418
_space_group_name_H-M_alt 'P 1'
_space_group_name_Hall 'P 1'
loop_
    _symmetry_equiv_pos_as_xyz
    x,y,z
loop_
    _atom_site_label
    _atom_site_type_symbol
    _atom_site_fract_x
    _atom_site_fract_y
    _atom_site_fract_z
    _atom_site_occupancy
    Lv0     Lv   0.00001   0.99998   1.00000   1.000
    Lv1     Lv   0.43801   0.20257   0.49936   1.000
    Lv2     Lv   0.06123   0.79763   0.50044   1.000
    Lv3     Lv   0.56206   0.79742   0.50001   1.000
    Lv4     Lv   0.93880   0.20237   0.49953   1.000
    Lv5     Lv   0.74988   0.00006   0.99953   1.000
    Lv6     Lv   0.81166   0.49926   0.20222   1.000
    Lv7     Lv   0.25014   0.99993   0.00039   1.000
    Lv8     Lv   0.18836   0.50069   0.79772   1.000
    Lv9     Lv   0.50001   0.99999   0.99998   1.000
    Lv10    Lv   0.31183   0.49913   0.20255   1.000
    Lv11    Lv   0.68820   0.50091   0.79748   1.000
