# CIF file generated by openbabel 2.4.90, see http://openbabel.sf.net
data_I
_chemical_name_common ''
_cell_length_a 21.409
_cell_length_b 12.775
_cell_length_c 12.76
_cell_angle_alpha 106.896
_cell_angle_beta 94.45
_cell_angle_gamma 85.418
_space_group_name_H-M_alt 'P 1'
_space_group_name_Hall 'P 1'
loop_
    _symmetry_equiv_pos_as_xyz
    x,y,z
loop_
    _atom_site_label
    _atom_site_type_symbol
    _atom_site_fract_x
    _atom_site_fract_y
    _atom_site_fract_z
    _atom_site_occupancy
    C0      C    0.45073   0.57793   0.98142   1.000
    C1      C    0.95032   0.57786   0.98129   1.000
    C2      C    0.29883   0.98094   0.57794   1.000
    C3      C    0.79975   0.98141   0.57790   1.000
    C4      C    0.04975   0.42212   0.01873   1.000
    C5      C    0.54929   0.42208   0.01855   1.000
    C6      C    0.20027   0.01856   0.42211   1.000
    C7      C    0.70120   0.01903   0.42205   1.000
    C8      C    0.38115   0.39880   0.65391   1.000
    C9      C    0.88205   0.39878   0.65396   1.000
    C10     C    0.35776   0.27124   0.47116   1.000
    C11     C    0.85850   0.27095   0.47142   1.000
    C12     C    0.03510   0.08865   0.49910   1.000
    C13     C    0.53450   0.08930   0.49860   1.000
    C14     C    0.05627   0.21534   0.68481   1.000
    C15     C    0.55543   0.21552   0.68474   1.000
    C16     C    0.36010   0.17181   0.30200   1.000
    C17     C    0.86129   0.17210   0.30193   1.000
    C18     C    0.38245   0.03244   0.23596   1.000
    C19     C    0.88317   0.03243   0.23606   1.000
    C20     C    0.37395   0.66397   0.81396   1.000
    C21     C    0.87399   0.66464   0.81313   1.000
    C22     C    0.28998   0.81321   0.81423   1.000
    C23     C    0.78999   0.81382   0.81346   1.000
    C24     C    0.27958   0.86021   0.16195   1.000
    C25     C    0.77911   0.85980   0.16095   1.000
    C26     C    0.36417   0.71045   0.14727   1.000
    C27     C    0.86372   0.71014   0.14619   1.000
    C28     C    0.20224   0.93123   0.91800   1.000
    C29     C    0.70191   0.93123   0.91800   1.000
    C30     C    0.20337   0.96075   0.06430   1.000
    C31     C    0.70306   0.96071   0.06350   1.000
    C32     C    0.36840   0.65345   0.39879   1.000
    C33     C    0.86869   0.65269   0.39860   1.000
    C34     C    0.39197   0.47069   0.27128   1.000
    C35     C    0.89169   0.46989   0.27072   1.000
    C36     C    0.21551   0.49874   0.08913   1.000
    C37     C    0.71514   0.49972   0.08945   1.000
    C38     C    0.19434   0.68470   0.21545   1.000
    C39     C    0.69460   0.68575   0.21600   1.000
    C40     C    0.38953   0.30133   0.17210   1.000
    C41     C    0.88927   0.30109   0.17049   1.000
    C42     C    0.36784   0.23587   0.03227   1.000
    C43     C    0.86704   0.23615   0.03077   1.000
    C44     C    0.37552   0.81351   0.66530   1.000
    C45     C    0.87618   0.81368   0.66475   1.000
    C46     C    0.45954   0.81401   0.81430   1.000
    C47     C    0.95998   0.81406   0.81411   1.000
    C48     C    0.47007   0.16093   0.85928   1.000
    C49     C    0.97057   0.16107   0.85960   1.000
    C50     C    0.38540   0.14609   0.70991   1.000
    C51     C    0.88615   0.14630   0.70978   1.000
    C52     C    0.04801   0.91844   0.93099   1.000
    C53     C    0.54781   0.91841   0.93045   1.000
    C54     C    0.04668   0.06376   0.96030   1.000
    C55     C    0.54645   0.06373   0.95975   1.000
    C56     C    0.11794   0.60116   0.34606   1.000
    C57     C    0.61894   0.60124   0.34607   1.000
    C58     C    0.14152   0.72904   0.52857   1.000
    C59     C    0.64229   0.72875   0.52885   1.000
    C60     C    0.46555   0.91070   0.50100   1.000
    C61     C    0.96493   0.91139   0.50088   1.000
    C62     C    0.44462   0.78444   0.31520   1.000
    C63     C    0.94379   0.78475   0.31514   1.000
    C64     C    0.13873   0.82790   0.69810   1.000
    C65     C    0.63998   0.82817   0.69793   1.000
    C66     C    0.11684   0.96755   0.76395   1.000
    C67     C    0.61765   0.96758   0.76401   1.000
    C68     C    0.12606   0.33533   0.18683   1.000
    C69     C    0.62606   0.33607   0.18601   1.000
    C70     C    0.21008   0.18617   0.18651   1.000
    C71     C    0.70997   0.18671   0.18570   1.000
    C72     C    0.22094   0.14016   0.83903   1.000
    C73     C    0.72040   0.13976   0.83800   1.000
    C74     C    0.13631   0.28979   0.85376   1.000
    C75     C    0.63589   0.28965   0.85273   1.000
    C76     C    0.29812   0.06870   0.08189   1.000
    C77     C    0.79775   0.06879   0.08100   1.000
    C78     C    0.29698   0.03923   0.93640   1.000
    C79     C    0.79661   0.03926   0.93557   1.000
    C80     C    0.13133   0.34721   0.60135   1.000
    C81     C    0.63159   0.34653   0.60135   1.000
    C82     C    0.10832   0.53001   0.72924   1.000
    C83     C    0.60808   0.52936   0.72876   1.000
    C84     C    0.28488   0.50026   0.91050   1.000
    C85     C    0.78455   0.50129   0.91087   1.000
    C86     C    0.30545   0.31423   0.78394   1.000
    C87     C    0.80574   0.31538   0.78451   1.000
    C88     C    0.11074   0.69885   0.82944   1.000
    C89     C    0.61050   0.69879   0.82796   1.000
    C90     C    0.13298   0.76382   0.96910   1.000
    C91     C    0.63217   0.76410   0.96782   1.000
    C92     C    0.12386   0.18626   0.33524   1.000
    C93     C    0.62449   0.18648   0.33472   1.000
    C94     C    0.04001   0.18594   0.18599   1.000
    C95     C    0.54050   0.18597   0.18569   1.000
    C96     C    0.02947   0.83889   0.14033   1.000
    C97     C    0.52995   0.83905   0.14074   1.000
    C98     C    0.11387   0.85364   0.29020   1.000
    C99     C    0.61458   0.85392   0.29017   1.000
    C100    C    0.45223   0.08158   0.06953   1.000
    C101    C    0.95203   0.08156   0.06900   1.000
    C102    C    0.45358   0.93625   0.04024   1.000
    C103    C    0.95334   0.93625   0.03967   1.000
    C104    C    0.48108   0.38958   0.79498   1.000
    C105    C    0.98215   0.38973   0.79486   1.000
    C106    C    0.46985   0.31641   0.68162   1.000
    C107    C    0.97077   0.31641   0.68160   1.000
    C108    C    0.41483   0.33140   0.61919   1.000
    C109    C    0.91569   0.33129   0.61929   1.000
    C110    C    0.40199   0.25962   0.51568   1.000
    C111    C    0.90275   0.25936   0.51590   1.000
    C112    C    0.44539   0.17242   0.47198   1.000
    C113    C    0.94608   0.17200   0.47230   1.000
    C114    C    0.00201   0.15732   0.53293   1.000
    C115    C    0.50132   0.15779   0.53264   1.000
    C116    C    0.01360   0.22824   0.63670   1.000
    C117    C    0.51280   0.22847   0.63660   1.000
    C118    C    0.37682   0.09294   0.31635   1.000
    C119    C    0.87754   0.09309   0.31630   1.000
    C120    C    0.32681   0.05484   0.37500   1.000
    C121    C    0.82703   0.05568   0.37459   1.000
    C122    C    0.35215   0.71112   0.88910   1.000
    C123    C    0.85207   0.71153   0.88825   1.000
    C124    C    0.30562   0.79342   0.89006   1.000
    C125    C    0.80552   0.79381   0.88922   1.000
    C126    C    0.27931   0.85134   0.98917   1.000
    C127    C    0.77905   0.85141   0.98829   1.000
    C128    C    0.29980   0.82015   0.08322   1.000
    C129    C    0.79942   0.81999   0.08225   1.000
    C130    C    0.34659   0.73683   0.07603   1.000
    C131    C    0.84622   0.73669   0.07502   1.000
    C132    C    0.23296   0.94715   0.99438   1.000
    C133    C    0.73265   0.94716   0.99354   1.000
    C134    C    0.26840   0.79473   0.38951   1.000
    C135    C    0.76924   0.79509   0.38971   1.000
    C136    C    0.27977   0.68136   0.31643   1.000
    C137    C    0.78014   0.68159   0.31658   1.000
    C138    C    0.33481   0.61885   0.33137   1.000
    C139    C    0.83496   0.61848   0.33128   1.000
    C140    C    0.34775   0.51533   0.25964   1.000
    C141    C    0.84759   0.51496   0.25933   1.000
    C142    C    0.30450   0.47182   0.17236   1.000
    C143    C    0.80417   0.47196   0.17215   1.000
    C144    C    0.24856   0.53256   0.15770   1.000
    C145    C    0.74836   0.53320   0.15787   1.000
    C146    C    0.23698   0.63656   0.22839   1.000
    C147    C    0.73712   0.63723   0.22875   1.000
    C148    C    0.37329   0.31599   0.09316   1.000
    C149    C    0.87269   0.31611   0.09184   1.000
    C150    C    0.42371   0.37446   0.05587   1.000
    C151    C    0.92287   0.37476   0.05416   1.000
    C152    C    0.39733   0.88858   0.71199   1.000
    C153    C    0.89799   0.88870   0.71159   1.000
    C154    C    0.44391   0.88965   0.79416   1.000
    C155    C    0.94443   0.88970   0.79394   1.000
    C156    C    0.47033   0.98858   0.85143   1.000
    C157    C    0.97080   0.98863   0.85136   1.000
    C158    C    0.44979   0.08236   0.81900   1.000
    C159    C    0.95037   0.08249   0.81982   1.000
    C160    C    0.40295   0.07506   0.73664   1.000
    C161    C    0.90368   0.07525   0.73647   1.000
    C162    C    0.01719   0.99388   0.94702   1.000
    C163    C    0.51699   0.99386   0.94680   1.000
    C164    C    0.01787   0.61027   0.20514   1.000
    C165    C    0.51897   0.61042   0.20490   1.000
    C166    C    0.02925   0.68360   0.31830   1.000
    C167    C    0.53022   0.68356   0.31836   1.000
    C168    C    0.08432   0.66869   0.38070   1.000
    C169    C    0.58525   0.66863   0.38079   1.000
    C170    C    0.09727   0.74064   0.48409   1.000
    C171    C    0.59806   0.74038   0.48432   1.000
    C172    C    0.05394   0.82800   0.52769   1.000
    C173    C    0.55466   0.82756   0.52000   1.000
    C174    C    0.49872   0.84220   0.46730   1.000
    C175    C    0.99802   0.84271   0.46700   1.000
    C176    C    0.48727   0.77151   0.36330   1.000
    C177    C    0.98644   0.77181   0.36318   1.000
    C178    C    0.12247   0.90689   0.68360   1.000
    C179    C    0.62326   0.90704   0.68363   1.000
    C180    C    0.17298   0.94431   0.62542   1.000
    C181    C    0.67327   0.94510   0.62493   1.000
    C182    C    0.14797   0.28841   0.11171   1.000
    C183    C    0.64788   0.28892   0.11087   1.000
    C184    C    0.19454   0.20617   0.11074   1.000
    C185    C    0.69435   0.20654   0.10990   1.000
    C186    C    0.22101   0.14855   0.01168   1.000
    C187    C    0.72066   0.14864   0.01078   1.000
    C188    C    0.20063   0.17997   0.91772   1.000
    C189    C    0.70019   0.17984   0.91673   1.000
    C190    C    0.15380   0.26322   0.92493   1.000
    C191    C    0.65346   0.26325   0.92396   1.000
    C192    C    0.26739   0.05278   0.00643   1.000
    C193    C    0.76702   0.05283   0.00557   1.000
    C194    C    0.23079   0.20486   0.61020   1.000
    C195    C    0.73162   0.20527   0.61054   1.000
    C196    C    0.21990   0.31836   0.68337   1.000
    C197    C    0.72026   0.31866   0.68363   1.000
    C198    C    0.16506   0.38145   0.66868   1.000
    C199    C    0.66521   0.38115   0.66871   1.000
    C200    C    0.15243   0.48496   0.74063   1.000
    C201    C    0.65229   0.48470   0.74041   1.000
    C202    C    0.19584   0.52798   0.82780   1.000
    C203    C    0.69554   0.52823   0.82767   1.000
    C204    C    0.25166   0.46676   0.84208   1.000
    C205    C    0.75148   0.46749   0.84230   1.000
    C206    C    0.26292   0.36274   0.77119   1.000
    C207    C    0.76308   0.36350   0.77160   1.000
    C208    C    0.12733   0.68385   0.90809   1.000
    C209    C    0.62674   0.68402   0.90685   1.000
    C210    C    0.07715   0.62523   0.94581   1.000
    C211    C    0.57632   0.62552   0.94410   1.000
    C212    C    0.10204   0.11126   0.28842   1.000
    C213    C    0.60268   0.11141   0.28803   1.000
    C214    C    0.05558   0.11028   0.20611   1.000
    C215    C    0.55612   0.11034   0.20584   1.000
    C216    C    0.02922   0.01135   0.14865   1.000
    C217    C    0.52970   0.01140   0.14857   1.000
    C218    C    0.04967   0.91746   0.18015   1.000
    C219    C    0.55023   0.91762   0.18023   1.000
    C220    C    0.09636   0.92470   0.26350   1.000
    C221    C    0.59705   0.92494   0.26340   1.000
    C222    C    0.48304   0.00612   0.05320   1.000
    C223    C    0.98284   0.00612   0.05299   1.000
    C224    C    0.37340   0.68430   0.98098   1.000
    C225    C    0.87324   0.68454   0.98007   1.000
    C226    C    0.37604   0.98019   0.68475   1.000
    C227    C    0.87681   0.98039   0.68440   1.000
    C228    C    0.12682   0.31545   0.01990   1.000
    C229    C    0.62662   0.31572   0.01899   1.000
    C230    C    0.12323   0.01956   0.31556   1.000
    C231    C    0.62396   0.01981   0.31530   1.000
    C232    C    0.44822   0.48019   0.82324   1.000
    C233    C    0.94931   0.48040   0.82309   1.000
    C234    C    0.02371   0.35536   0.85666   1.000
    C235    C    0.52258   0.35514   0.85690   1.000
    C236    C    0.43770   0.09788   0.37060   1.000
    C237    C    0.93830   0.09728   0.37107   1.000
    C238    C    0.27102   0.05930   0.33349   1.000
    C239    C    0.77130   0.06119   0.33310   1.000
    C240    C    0.34570   0.02222   0.45694   1.000
    C241    C    0.84554   0.02233   0.45623   1.000
    C242    C    0.30126   0.82304   0.48005   1.000
    C243    C    0.80214   0.82311   0.48023   1.000
    C244    C    0.22679   0.85654   0.35510   1.000
    C245    C    0.72797   0.85737   0.35526   1.000
    C246    C    0.31241   0.37057   0.09768   1.000
    C247    C    0.81182   0.37079   0.09726   1.000
    C248    C    0.47950   0.33305   0.06127   1.000
    C249    C    0.97866   0.33313   0.05856   1.000
    C250    C    0.40509   0.45611   0.02269   1.000
    C251    C    0.90400   0.45680   0.02170   1.000
    C252    C    0.05074   0.51964   0.17689   1.000
    C253    C    0.55180   0.51978   0.17675   1.000
    C254    C    0.47745   0.64485   0.14309   1.000
    C255    C    0.97627   0.64458   0.14336   1.000
    C256    C    0.06171   0.90268   0.62895   1.000
    C257    C    0.56238   0.90213   0.62936   1.000
    C258    C    0.22871   0.93880   0.66689   1.000
    C259    C    0.72905   0.94073   0.66655   1.000
    C260    C    0.15446   0.97765   0.54379   1.000
    C261    C    0.65441   0.97766   0.54297   1.000
    C262    C    0.19789   0.17684   0.51970   1.000
    C263    C    0.69876   0.17694   0.52001   1.000
    C264    C    0.27208   0.14260   0.64469   1.000
    C265    C    0.77324   0.14347   0.64485   1.000
    C266    C    0.18819   0.62915   0.90269   1.000
    C267    C    0.68763   0.62949   0.90234   1.000
    C268    C    0.02136   0.66690   0.94150   1.000
    C269    C    0.52052   0.66691   0.93868   1.000
    C270    C    0.09602   0.54314   0.97815   1.000
    C271    C    0.59494   0.54388   0.97730   1.000
    O272    O    0.74384   0.10073   0.00817   1.000
    O273    O    0.78239   0.06081   0.04328   1.000
    O274    O    0.78182   0.04605   0.97057   1.000
    O275    O    0.74984   1.00000   0.99955   1.000
    O276    O    0.24420   0.10066   0.00905   1.000
    O277    O    0.28276   0.06074   0.04416   1.000
    O278    O    0.28219   0.04600   0.97142   1.000
    O279    O    0.25018   0.99996   0.00040   1.000
    O280    O    0.70751   0.17759   0.06034   1.000
    O281    O    0.71043   0.16424   0.96375   1.000
    O282    O    0.20777   0.17736   0.06121   1.000
    O283    O    0.21082   0.16426   0.96470   1.000
    O284    O    0.58795   0.36890   0.01877   1.000
    O285    O    0.51440   0.37757   0.03991   1.000
    O286    O    0.55054   0.47093   0.09765   1.000
    O287    O    0.53593   0.38861   0.93772   1.000
    O288    O    0.57211   0.48298   0.99792   1.000
    O289    O    0.08829   0.36878   0.01931   1.000
    O290    O    0.01421   0.37762   0.03864   1.000
    O291    O    0.05025   0.47088   0.09781   1.000
    O292    O    0.03673   0.38874   0.93769   1.000
    O293    O    0.07288   0.48263   0.99844   1.000
    O294    O    0.63725   0.30232   0.06493   1.000
    O295    O    0.64004   0.28948   0.97147   1.000
    O296    O    0.13739   0.30193   0.06581   1.000
    O297    O    0.14031   0.28933   0.97241   1.000
    O298    O    0.91344   0.41578   0.03793   1.000
    O299    O    0.92716   0.51733   0.00149   1.000
    O300    O    0.41440   0.41528   0.03928   1.000
    O301    O    0.42791   0.51702   0.00205   1.000
    O302    O    0.86986   0.27613   0.06130   1.000
    O303    O    0.37056   0.27593   0.06272   1.000
    O304    O    0.96809   0.97119   0.04633   1.000
    O305    O    0.46831   0.97119   0.04672   1.000
    O306    O    0.96743   0.04384   0.06100   1.000
    O307    O    0.00603   0.00874   0.10082   1.000
    O308    O    0.00001   0.00000   0.00000   1.000
    O309    O    0.46764   0.04385   0.06136   1.000
    O310    O    0.50637   0.00876   0.10089   1.000
    O311    O    0.50002   0.99999   0.00000   1.000
    O312    O    0.95077   0.35394   0.05636   1.000
    O313    O    0.89778   0.34543   0.07300   1.000
    O314    O    0.45160   0.35375   0.05857   1.000
    O315    O    0.39850   0.34522   0.07452   1.000
    O316    O    0.71786   0.95394   0.02852   1.000
    O317    O    0.21816   0.95395   0.02934   1.000
    O318    O    0.82282   0.77834   0.07863   1.000
    O319    O    0.85497   0.72341   0.11060   1.000
    O320    O    0.85973   0.71062   0.02754   1.000
    O321    O    0.32319   0.77849   0.07963   1.000
    O322    O    0.35538   0.72364   0.11165   1.000
    O323    O    0.35999   0.71057   0.02851   1.000
    O324    O    0.78927   0.83990   0.12160   1.000
    O325    O    0.78923   0.83570   0.03527   1.000
    O326    O    0.28969   0.84018   0.12259   1.000
    O327    O    0.28956   0.83575   0.03619   1.000
    O328    O    0.23203   0.51565   0.12341   1.000
    O329    O    0.73175   0.51646   0.12366   1.000
    O330    O    0.84225   0.34345   0.09455   1.000
    O331    O    0.88098   0.30860   0.13117   1.000
    O332    O    0.34285   0.34328   0.09542   1.000
    O333    O    0.38141   0.30866   0.13263   1.000
    O334    O    0.80800   0.42138   0.13470   1.000
    O335    O    0.30846   0.42119   0.13502   1.000
    O336    O    0.67112   0.24773   0.11038   1.000
    O337    O    0.70216   0.19662   0.14780   1.000
    O338    O    0.17125   0.24729   0.11122   1.000
    O339    O    0.20231   0.19617   0.14863   1.000
    O340    O    0.63697   0.31250   0.14844   1.000
    O341    O    0.13701   0.31187   0.14927   1.000
    O342    O    0.03957   0.87818   0.16024   1.000
    O343    O    0.54009   0.87834   0.16048   1.000
    O344    O    0.49821   0.62763   0.17399   1.000
    O345    O    0.46409   0.61139   0.06225   1.000
    O346    O    0.99707   0.62743   0.17425   1.000
    O347    O    0.96330   0.61122   0.06232   1.000
    O348    O    0.53997   0.96451   0.16440   1.000
    O349    O    0.54291   0.06087   0.17720   1.000
    O350    O    0.03945   0.96441   0.16440   1.000
    O351    O    0.04240   0.06082   0.17738   1.000
    O352    O    0.27653   0.50219   0.16503   1.000
    O353    O    0.24277   0.58456   0.19304   1.000
    O354    O    0.77627   0.50258   0.16501   1.000
    O355    O    0.74274   0.58521   0.19331   1.000
    O356    O    0.82588   0.49346   0.21574   1.000
    O357    O    0.32613   0.49357   0.21600   1.000
    O358    O    0.53538   0.56510   0.19082   1.000
    O359    O    0.03431   0.56495   0.19101   1.000
    O360    O    0.07301   0.92108   0.22182   1.000
    O361    O    0.57364   0.92128   0.22182   1.000
    O362    O    0.54831   0.14815   0.19576   1.000
    O363    O    0.04779   0.14811   0.19605   1.000
    O364    O    0.52459   0.64699   0.26163   1.000
    O365    O    0.02356   0.64694   0.26172   1.000
    O366    O    0.57940   0.11087   0.24693   1.000
    O367    O    0.07881   0.11077   0.24726   1.000
    O368    O    0.21566   0.66063   0.22192   1.000
    O369    O    0.71586   0.66149   0.22237   1.000
    O370    O    0.25838   0.65896   0.27241   1.000
    O371    O    0.75863   0.65941   0.27266   1.000
    O372    O    0.37964   0.06269   0.27615   1.000
    O373    O    0.88035   0.06276   0.27618   1.000
    O374    O    0.86964   0.49243   0.26503   1.000
    O375    O    0.84127   0.56672   0.29530   1.000
    O376    O    0.36986   0.49301   0.26546   1.000
    O377    O    0.34128   0.56709   0.29551   1.000
    O378    O    0.60582   0.88943   0.27679   1.000
    O379    O    0.61051   0.97237   0.28935   1.000
    O380    O    0.10511   0.88917   0.27685   1.000
    O381    O    0.10979   0.97213   0.28953   1.000
    O382    O    0.61332   0.06561   0.30167   1.000
    O383    O    0.61359   0.14894   0.31138   1.000
    O384    O    0.11263   0.06541   0.30199   1.000
    O385    O    0.11295   0.14876   0.31183   1.000
    O386    O    0.86941   0.13259   0.30911   1.000
    O387    O    0.36846   0.13238   0.30917   1.000
    O388    O    0.96511   0.77828   0.33916   1.000
    O389    O    0.46595   0.77797   0.33925   1.000
    O390    O    0.66258   0.01942   0.36867   1.000
    O391    O    0.16175   0.01906   0.36883   1.000
    O392    O    0.90792   0.09519   0.34368   1.000
    O393    O    0.85228   0.07439   0.34544   1.000
    O394    O    0.40726   0.09541   0.34347   1.000
    O395    O    0.35182   0.07389   0.34568   1.000
    O396    O    0.30729   0.65011   0.32390   1.000
    O397    O    0.27408   0.73805   0.35297   1.000
    O398    O    0.80755   0.65004   0.32393   1.000
    O399    O    0.77469   0.73834   0.35314   1.000
    O400    O    0.00785   0.72771   0.34074   1.000
    O401    O    0.05679   0.67614   0.34950   1.000
    O402    O    0.50874   0.72754   0.34083   1.000
    O403    O    0.55773   0.67610   0.34957   1.000
    O404    O    0.85183   0.63559   0.36494   1.000
    O405    O    0.35160   0.63615   0.36508   1.000
    O406    O    0.79917   0.05844   0.35384   1.000
    O407    O    0.73625   0.04011   0.37757   1.000
    O408    O    0.29891   0.05707   0.35424   1.000
    O409    O    0.23564   0.03893   0.37780   1.000
    O410    O    0.10113   0.63492   0.36338   1.000
    O411    O    0.60209   0.63493   0.36343   1.000
    O412    O    0.24759   0.82564   0.37230   1.000
    O413    O    0.21353   0.93755   0.38861   1.000
    O414    O    0.74860   0.82623   0.37248   1.000
    O415    O    0.71458   0.93820   0.38866   1.000
    O416    O    0.99223   0.80726   0.41509   1.000
    O417    O    0.49300   0.80685   0.41530   1.000
    O418    O    0.44155   0.13515   0.42129   1.000
    O419    O    0.94219   0.13464   0.42168   1.000
    O420    O    0.83629   0.03900   0.41541   1.000
    O421    O    0.33625   0.03853   0.41597   1.000
    O422    O    0.09079   0.70467   0.43239   1.000
    O423    O    0.59165   0.70450   0.43255   1.000
    O424    O    0.28483   0.80889   0.43478   1.000
    O425    O    0.78569   0.80910   0.43497   1.000
    O426    O    0.69998   0.09799   0.47103   1.000
    O427    O    0.67781   0.99834   0.48251   1.000
    O428    O    0.19908   0.09770   0.47090   1.000
    O429    O    0.17737   0.99811   0.48295   1.000
    O430    O    0.82265   0.00187   0.51706   1.000
    O431    O    0.32226   0.00158   0.51744   1.000
    O432    O    0.98148   0.87705   0.48394   1.000
    O433    O    0.02598   0.83535   0.49734   1.000
    O434    O    0.48213   0.87645   0.48415   1.000
    O435    O    0.52669   0.83488   0.49365   1.000
    O436    O    0.37987   0.26543   0.49342   1.000
    O437    O    0.88063   0.26515   0.49366   1.000
    O438    O    0.42369   0.21602   0.49383   1.000
    O439    O    0.47336   0.16511   0.50231   1.000
    O440    O    0.92442   0.21568   0.49410   1.000
    O441    O    0.97404   0.16466   0.50262   1.000
    O442    O    0.30005   0.90199   0.52899   1.000
    O443    O    0.80094   0.90226   0.52906   1.000
    O444    O    0.07561   0.78432   0.50589   1.000
    O445    O    0.11939   0.73484   0.50633   1.000
    O446    O    0.57636   0.78397   0.50216   1.000
    O447    O    0.62018   0.73456   0.50658   1.000
    O448    O    0.51791   0.12355   0.51562   1.000
    O449    O    0.01856   0.12299   0.51602   1.000
    O450    O    0.40841   0.29551   0.56743   1.000
    O451    O    0.90922   0.29532   0.56759   1.000
    O452    O    0.21434   0.19085   0.56495   1.000
    O453    O    0.55852   0.86484   0.57468   1.000
    O454    O    0.71519   0.19111   0.56527   1.000
    O455    O    0.05783   0.86534   0.57832   1.000
    O456    O    0.50706   0.19313   0.58462   1.000
    O457    O    0.00781   0.19278   0.58481   1.000
    O458    O    0.66384   0.96138   0.58395   1.000
    O459    O    0.16372   0.96098   0.58460   1.000
    O460    O    0.78650   0.06244   0.61138   1.000
    O461    O    0.76440   0.96107   0.62222   1.000
    O462    O    0.83828   0.98090   0.63115   1.000
    O463    O    0.28546   0.06177   0.61132   1.000
    O464    O    0.26377   0.95987   0.62241   1.000
    O465    O    0.33743   0.98056   0.63135   1.000
    O466    O    0.14820   0.36433   0.63501   1.000
    O467    O    0.64840   0.36384   0.63503   1.000
    O468    O    0.25144   0.17373   0.62745   1.000
    O469    O    0.22534   0.26161   0.64678   1.000
    O470    O    0.75243   0.17437   0.62769   1.000
    O471    O    0.72594   0.26196   0.64708   1.000
    O472    O    0.39799   0.36510   0.63655   1.000
    O473    O    0.44234   0.32390   0.65041   1.000
    O474    O    0.89887   0.36503   0.63662   1.000
    O475    O    0.94323   0.32385   0.65044   1.000
    O476    O    0.70116   0.94292   0.64574   1.000
    O477    O    0.64827   0.92607   0.65428   1.000
    O478    O    0.20085   0.94155   0.64615   1.000
    O479    O    0.14773   0.92560   0.65451   1.000
    O480    O    0.09209   0.90478   0.65627   1.000
    O481    O    0.59282   0.90458   0.65649   1.000
    O482    O    0.49132   0.27244   0.65911   1.000
    O483    O    0.53411   0.22199   0.66067   1.000
    O484    O    0.99219   0.27233   0.65915   1.000
    O485    O    0.03494   0.22179   0.66075   1.000
    O486    O    0.88709   0.85119   0.68817   1.000
    O487    O    0.38643   0.85105   0.68864   1.000
    O488    O    0.19248   0.34990   0.67603   1.000
    O489    O    0.15874   0.43320   0.70466   1.000
    O490    O    0.69274   0.34990   0.67617   1.000
    O491    O    0.65875   0.43292   0.70456   1.000
    O492    O    0.97646   0.35307   0.73823   1.000
    O493    O    0.47547   0.35300   0.73830   1.000
    O494    O    0.24141   0.34055   0.72728   1.000
    O495    O    0.13060   0.86739   0.69085   1.000
    O496    O    0.11966   0.93722   0.72378   1.000
    O497    O    0.63162   0.86761   0.69078   1.000
    O498    O    0.62045   0.93731   0.72382   1.000
    O499    O    0.74167   0.34108   0.72761   1.000
    O500    O    0.88740   0.93454   0.69800   1.000
    O501    O    0.89024   0.02782   0.71044   1.000
    O502    O    0.38669   0.93439   0.69837   1.000
    O503    O    0.38949   0.02762   0.71069   1.000
    O504    O    0.89491   0.11078   0.72313   1.000
    O505    O    0.39417   0.11057   0.72328   1.000
    O506    O    0.92121   0.88920   0.75277   1.000
    O507    O    0.42062   0.88911   0.75308   1.000
    O508    O    0.63018   0.50703   0.73458   1.000
    O509    O    0.13037   0.50748   0.73494   1.000
    O510    O    0.92702   0.07887   0.77815   1.000
    O511    O    0.42637   0.07871   0.77782   1.000
    O512    O    0.67392   0.50647   0.78404   1.000
    O513    O    0.17413   0.50647   0.78421   1.000
    O514    O    0.28418   0.33849   0.77756   1.000
    O515    O    0.25729   0.41475   0.80663   1.000
    O516    O    0.78441   0.33944   0.77805   1.000
    O517    O    0.75728   0.41549   0.80695   1.000
    O518    O    0.95220   0.85188   0.80402   1.000
    O519    O    0.95761   0.93916   0.82265   1.000
    O520    O    0.45172   0.85183   0.80423   1.000
    O521    O    0.45712   0.93911   0.82280   1.000
    O522    O    0.96573   0.43506   0.80897   1.000
    O523    O    0.00293   0.37255   0.82576   1.000
    O524    O    0.46465   0.43488   0.80911   1.000
    O525    O    0.50183   0.37236   0.82594   1.000
    O526    O    0.86303   0.68808   0.85069   1.000
    O527    O    0.79776   0.80382   0.85134   1.000
    O528    O    0.36305   0.68754   0.85153   1.000
    O529    O    0.29780   0.80332   0.85215   1.000
    O530    O    0.46006   0.03547   0.83522   1.000
    O531    O    0.45993   0.12165   0.83914   1.000
    O532    O    0.96058   0.03556   0.83559   1.000
    O533    O    0.96047   0.12178   0.83971   1.000
    O534    O    0.94982   0.52913   0.90219   1.000
    O535    O    0.44948   0.52906   0.90233   1.000
    O536    O    0.72351   0.49786   0.83498   1.000
    O537    O    0.69159   0.57886   0.86501   1.000
    O538    O    0.22375   0.49737   0.83494   1.000
    O539    O    0.19202   0.57856   0.86524   1.000
    O540    O    0.61862   0.69141   0.86740   1.000
    O541    O    0.11904   0.69135   0.86876   1.000
    O542    O    0.71030   0.15980   0.87736   1.000
    O543    O    0.21078   0.16006   0.87838   1.000
    O544    O    0.26827   0.48351   0.87629   1.000
    O545    O    0.76802   0.48439   0.87658   1.000
    O546    O    0.99399   0.99125   0.89919   1.000
    O547    O    0.49366   0.99122   0.89911   1.000
    O548    O    0.64467   0.27645   0.88834   1.000
    O549    O    0.14506   0.27651   0.88935   1.000
    O550    O    0.82879   0.75267   0.88873   1.000
    O551    O    0.86266   0.69803   0.93416   1.000
    O552    O    0.32889   0.75227   0.88958   1.000
    O553    O    0.36277   0.69771   0.93504   1.000
    O554    O    0.79228   0.82261   0.93876   1.000
    O555    O    0.29247   0.82238   0.93961   1.000
    O556    O    0.65719   0.65676   0.90460   1.000
    O557    O    0.15776   0.65650   0.90539   1.000
    O558    O    0.60153   0.65477   0.92547   1.000
    O559    O    0.62946   0.72406   0.93734   1.000
    O560    O    0.10224   0.65454   0.92695   1.000
    O561    O    0.13015   0.72383   0.93859   1.000
    O562    O    0.67683   0.22155   0.92034   1.000
    O563    O    0.17721   0.22160   0.92132   1.000
    O564    O    0.71728   0.93919   0.95577   1.000
    O565    O    0.21760   0.93919   0.95619   1.000
    O566    O    0.53240   0.95613   0.93862   1.000
    O567    O    0.03260   0.95616   0.93900   1.000
    O568    O    0.54842   0.64622   0.94139   1.000
    O569    O    0.48563   0.62242   0.96005   1.000
    O570    O    0.04926   0.64606   0.94365   1.000
    O571    O    0.98584   0.62238   0.96139   1.000
    O572    O    0.58563   0.58470   0.96070   1.000
    O573    O    0.08658   0.58418   0.96198   1.000
    O574    O    0.53172   0.02879   0.95327   1.000
    O575    O    0.03193   0.02882   0.95366   1.000
    O576    O    0.91178   0.63120   0.98068   1.000
    O577    O    0.41206   0.63111   0.98120   1.000
    O578    O    0.75585   0.89928   0.99091   1.000
    O579    O    0.25614   0.89925   0.99177   1.000
    O580    O    0.50001   0.50001   0.99998   1.000
    O581    O    0.00004   0.49999   0.00001   1.000
    O582    O    0.24955   0.99975   0.50002   1.000
    O583    O    0.75048   0.00022   0.49998   1.000
loop_
    _geom_bond_atom_site_label_1
    _geom_bond_atom_site_label_2
    _geom_bond_distance
    _geom_bond_site_symmetry_2
    _ccdc_geom_bond_type
    C193   O272      0.75105      .   S
    C187   O272      0.75105      .   S
    C193   O273      0.54995      .   S
    C77    O273      0.54995      .   S
    C193   O274      0.54988  1_554   S
    C79    O274      0.54988      .   S
    C193   O275      0.77593  1_544   S
    C133   O275      0.77593      .   S
    C192   O276      0.75102      .   S
    C186   O276      0.75102      .   S
    C192   O277      0.55010      .   S
    C76    O277      0.55010      .   S
    C192   O278      0.55000  1_554   S
    C78    O278      0.55000      .   S
    C192   O279      0.77600  1_545   S
    C132   O279      0.77600  1_556   S
    C187   O280      0.70076      .   S
    C185   O280      0.70076      .   S
    C187   O281      0.69996  1_554   S
    C189   O281      0.69996      .   S
    C186   O282      0.70080      .   S
    C184   O282      0.70080      .   S
    C186   O283      0.69992  1_554   S
    C188   O283      0.69992      .   S
    C5     O284      1.02843      .   S
    C229   O284      1.02843      .   S
    C5     O285      1.07020      .   S
    C248   O285      1.07020      .   S
    C5     O286      1.02039      .   S
    C253   O286      1.02039      .   S
    C5     O287      1.02257  1_554   S
    C235   O287      1.02257      .   S
    C5     O288      1.05500  1_554   S
    C271   O288      1.05500      .   S
    C4     O289      1.02812      .   S
    C228   O289      1.02812      .   S
    C4     O290      1.07227      .   S
    C249   O290      1.07227  1_655   S
    C4     O291      1.01999      .   S
    C252   O291      1.01999      .   S
    C4     O292      1.02306  1_554   S
    C234   O292      1.02306      .   S
    C4     O293      1.05228  1_554   S
    C270   O293      1.05228      .   S
    C229   O294      0.67536      .   S
    C183   O294      0.67536      .   S
    C229   O295      0.67528  1_554   S
    C191   O295      0.67528      .   S
    C228   O296      0.67539      .   S
    C182   O296      0.67539      .   S
    C228   O297      0.67537  1_554   S
    C190   O297      0.67537      .   S
    C251   O298      0.63087      .   S
    C151   O298      0.63087      .   S
    C251   O299      1.05229      .   S
    C1     O299      1.05229  1_556   S
    C250   O300      0.63055      .   S
    C150   O300      0.63055      .   S
    C250   O301      1.05510      .   S
    C0     O301      1.05510  1_556   S
    C43    O302      0.54947      .   S
    C149   O302      0.54947      .   S
    C42    O303      0.54947      .   S
    C148   O303      0.54947      .   S
    C103   O304      0.54996      .   S
    C223   O304      0.54996  1_545   S
    C102   O305      0.54998      .   S
    C222   O305      0.54998  1_545   S
    C223   O306      0.55014      .   S
    C101   O306      0.55014      .   S
    C223   O307      0.75092  1_655   S
    C216   O307      0.75092      .   S
    C223   O308      0.77566  1_655   S
    C162   O308      0.77566  1_566   S
    C222   O309      0.55014      .   S
    C100   O309      0.55014      .   S
    C222   O310      0.75131      .   S
    C217   O310      0.75131      .   S
    C222   O311      0.77579  1_545   S
    C163   O311      0.77579  1_556   S
    C151   O312      0.63604      .   S
    C249   O312      0.63604      .   S
    C151   O313      0.76893      .   S
    C149   O313      0.76893      .   S
    C150   O314      0.63621      .   S
    C248   O314      0.63621      .   S
    C150   O315      0.76885      .   S
    C148   O315      0.76885      .   S
    C31    O316      0.54964      .   S
    C133   O316      0.54964  1_556   S
    C30    O317      0.54945      .   S
    C132   O317      0.54945  1_556   S
    C131   O318      0.69493      .   S
    C129   O318      0.69493      .   S
    C131   O319      0.54453      .   S
    C27    O319      0.54453      .   S
    C131   O320      0.67537      .   S
    C225   O320      0.67537  1_556   S
    C130   O321      0.69496      .   S
    C128   O321      0.69496      .   S
    C130   O322      0.54458      .   S
    C26    O322      0.54458      .   S
    C130   O323      0.67531      .   S
    C224   O323      0.67531  1_556   S
    C129   O324      0.54583      .   S
    C25    O324      0.54583      .   S
    C129   O325      0.69988      .   S
    C127   O325      0.69988  1_556   S
    C128   O326      0.54583      .   S
    C24    O326      0.54583      .   S
    C128   O327      0.69993      .   S
    C126   O327      0.69993  1_556   S
    C36    O328      0.54455      .   S
    C144   O328      0.54455      .   S
    C37    O329      0.54455      .   S
    C145   O329      0.54455      .   S
    C149   O330      0.71262      .   S
    C247   O330      0.71262      .   S
    C149   O331      0.55130      .   S
    C41    O331      0.55130      .   S
    C148   O332      0.71260      .   S
    C246   O332      0.71260      .   S
    C148   O333      0.55127      .   S
    C40    O333      0.55127      .   S
    C247   O334      0.68611      .   S
    C143   O334      0.68611      .   S
    C246   O335      0.68617      .   S
    C142   O335      0.68617      .   S
    C185   O336      0.69370      .   S
    C183   O336      0.69370      .   S
    C185   O337      0.54548      .   S
    C71    O337      0.54548      .   S
    C184   O338      0.69371      .   S
    C182   O338      0.69371      .   S
    C184   O339      0.54561      .   S
    C70    O339      0.54561      .   S
    C183   O340      0.54520      .   S
    C69    O340      0.54520      .   S
    C182   O341      0.54520      .   S
    C68    O341      0.54520      .   S
    C96    O342      0.54579      .   S
    C218   O342      0.54579      .   S
    C97    O343      0.54580      .   S
    C219   O343      0.54580      .   S
    C254   O344      0.63950      .   S
    C165   O344      0.63950      .   S
    C254   O345      1.02269      .   S
    C0     O345      1.02269  1_556   S
    C255   O346      0.63960      .   S
    C164   O346      0.63960  1_455   S
    C255   O347      1.02282      .   S
    C1     O347      1.02282  1_556   S
    C217   O348      0.70020  1_545   S
    C219   O348      0.70020      .   S
    C217   O349      0.70083      .   S
    C215   O349      0.70083      .   S
    C216   O350      0.70014  1_545   S
    C218   O350      0.70014      .   S
    C216   O351      0.70077      .   S
    C214   O351      0.70077      .   S
    C144   O352      0.70224      .   S
    C142   O352      0.70224      .   S
    C144   O353      0.69385      .   S
    C146   O353      0.69385      .   S
    C145   O354      0.70227      .   S
    C143   O354      0.70227      .   S
    C145   O355      0.69391      .   S
    C147   O355      0.69391      .   S
    C143   O356      0.70159      .   S
    C141   O356      0.70159      .   S
    C142   O357      0.70160      .   S
    C140   O357      0.70160      .   S
    C253   O358      0.63860      .   S
    C165   O358      0.63860      .   S
    C252   O359      0.63881      .   S
    C164   O359      0.63881      .   S
    C218   O360      0.69489      .   S
    C220   O360      0.69489      .   S
    C219   O361      0.69502      .   S
    C221   O361      0.69502      .   S
    C95    O362      0.54561      .   S
    C215   O362      0.54561      .   S
    C94    O363      0.54559      .   S
    C214   O363      0.54559      .   S
    C165   O364      0.74544      .   S
    C167   O364      0.74544      .   S
    C164   O365      0.74455      .   S
    C166   O365      0.74455      .   S
    C215   O366      0.69381      .   S
    C213   O366      0.69381      .   S
    C214   O367      0.69368      .   S
    C212   O367      0.69368      .   S
    C38    O368      0.54426      .   S
    C146   O368      0.54426      .   S
    C39    O369      0.54426      .   S
    C147   O369      0.54426      .   S
    C146   O370      0.70339      .   S
    C136   O370      0.70339      .   S
    C147   O371      0.70347      .   S
    C137   O371      0.70347      .   S
    C18    O372      0.54945      .   S
    C118   O372      0.54945      .   S
    C19    O373      0.54918      .   S
    C119   O373      0.54918      .   S
    C141   O374      0.54419      .   S
    C35    O374      0.54419      .   S
    C141   O375      0.69651      .   S
    C139   O375      0.69651      .   S
    C140   O376      0.54420      .   S
    C34    O376      0.54420      .   S
    C140   O377      0.69656      .   S
    C138   O377      0.69656      .   S
    C221   O378      0.54459      .   S
    C99    O378      0.54459      .   S
    C221   O379      0.67547      .   S
    C231   O379      0.67547  1_545   S
    C220   O380      0.54458      .   S
    C98    O380      0.54458      .   S
    C220   O381      0.67545      .   S
    C230   O381      0.67545  1_545   S
    C213   O382      0.67542      .   S
    C231   O382      0.67542      .   S
    C213   O383      0.54518      .   S
    C93    O383      0.54518      .   S
    C212   O384      0.67540      .   S
    C230   O384      0.67540      .   S
    C212   O385      0.54517      .   S
    C92    O385      0.54517      .   S
    C17    O386      0.55110      .   S
    C119   O386      0.55110      .   S
    C16    O387      0.55144      .   S
    C118   O387      0.55144      .   S
    C63    O388      0.54425      .   S
    C177   O388      0.54425      .   S
    C62    O389      0.54440      .   S
    C176   O389      0.54440      .   S
    C231   O390      1.03026      .   S
    C7     O390      1.03026      .   S
    C230   O391      1.02810      .   S
    C6     O391      1.02810      .   S
    C119   O392      0.71266      .   S
    C237   O392      0.71266      .   S
    C119   O393      0.76892      .   S
    C121   O393      0.76892      .   S
    C118   O394      0.71232      .   S
    C236   O394      0.71232      .   S
    C118   O395      0.76859      .   S
    C120   O395      0.76859      .   S
    C136   O396      0.70102      .   S
    C138   O396      0.70102      .   S
    C136   O397      0.74504      .   S
    C134   O397      0.74504      .   S
    C137   O398      0.70098      .   S
    C139   O398      0.70098      .   S
    C137   O399      0.74513      .   S
    C135   O399      0.74513      .   S
    C166   O400      0.70344      .   S
    C177   O400      0.70344  1_655   S
    C166   O401      0.70117      .   S
    C168   O401      0.70117      .   S
    C167   O402      0.70335      .   S
    C176   O402      0.70335      .   S
    C167   O403      0.70100      .   S
    C169   O403      0.70100      .   S
    C139   O404      0.54460      .   S
    C33    O404      0.54460      .   S
    C138   O405      0.54458      .   S
    C32    O405      0.54458      .   S
    C239   O406      0.63618      .   S
    C121   O406      0.63618      .   S
    C239   O407      1.07001      .   S
    C7     O407      1.07001      .   S
    C238   O408      0.63622      .   S
    C120   O408      0.63622      .   S
    C238   O409      1.06972      .   S
    C6     O409      1.06972      .   S
    C56    O410      0.54457      .   S
    C168   O410      0.54457      .   S
    C57    O411      0.54461      .   S
    C169   O411      0.54461      .   S
    C244   O412      0.63998      .   S
    C134   O412      0.63998      .   S
    C244   O413      1.02426      .   S
    C6     O413      1.02426  1_545   S
    C245   O414      0.63986      .   S
    C135   O414      0.63986      .   S
    C245   O415      1.02268      .   S
    C7     O415      1.02268  1_545   S
    C177   O416      0.69359      .   S
    C175   O416      0.69359      .   S
    C176   O417      0.69372      .   S
    C174   O417      0.69372      .   S
    C236   O418      0.68617      .   S
    C112   O418      0.68617      .   S
    C237   O419      0.68605      .   S
    C113   O419      0.68605      .   S
    C121   O420      0.63062      .   S
    C241   O420      0.63062      .   S
    C120   O421      0.63069      .   S
    C240   O421      0.63069      .   S
    C168   O422      0.69666      .   S
    C170   O422      0.69666      .   S
    C169   O423      0.69655      .   S
    C171   O423      0.69655      .   S
    C134   O424      0.63878      .   S
    C242   O424      0.63878      .   S
    C135   O425      0.63873      .   S
    C243   O425      0.63873      .   S
    C7     O426      1.02011      .   S
    C263   O426      1.02011      .   S
    C7     O427      1.05616  1_545   S
    C261   O427      1.05616      .   S
    C6     O428      1.02119      .   S
    C262   O428      1.02119      .   S
    C6     O429      1.05305  1_545   S
    C260   O429      1.05305      .   S
    C241   O430      1.05290      .   S
    C3     O430      1.05290  1_565   S
    C240   O431      1.05674      .   S
    C2     O431      1.05674  1_565   S
    C175   O432      0.54457      .   S
    C61    O432      0.54457      .   S
    C175   O433      0.70233  1_655   S
    C172   O433      0.70233      .   S
    C174   O434      0.54418      .   S
    C60    O434      0.54418      .   S
    C174   O435      0.67703      .   S
    C173   O435      0.67703      .   S
    C10    O436      0.54418      .   S
    C110   O436      0.54418      .   S
    C11    O437      0.54420      .   S
    C111   O437      0.54420      .   S
    C112   O438      0.70163      .   S
    C110   O438      0.70163      .   S
    C112   O439      0.70224      .   S
    C115   O439      0.70224      .   S
    C113   O440      0.70160      .   S
    C111   O440      0.70160      .   S
    C113   O441      0.70220      .   S
    C114   O441      0.70220  1_455   S
    C242   O442      1.01987      .   S
    C2     O442      1.01987      .   S
    C243   O443      1.02148      .   S
    C3     O443      1.02148      .   S
    C170   O444      0.70161      .   S
    C172   O444      0.70161      .   S
    C170   O445      0.54419      .   S
    C58    O445      0.54419      .   S
    C171   O446      0.69228      .   S
    C173   O446      0.69228      .   S
    C171   O447      0.54420      .   S
    C59    O447      0.54420      .   S
    C13    O448      0.54463      .   S
    C115   O448      0.54463      .   S
    C12    O449      0.54451      .   S
    C114   O449      0.54451      .   S
    C110   O450      0.69658      .   S
    C108   O450      0.69658      .   S
    C111   O451      0.69657      .   S
    C109   O451      0.69657      .   S
    C262   O452      0.63865      .   S
    C194   O452      0.63865      .   S
    C173   O453      0.72433      .   S
    C257   O453      0.72433      .   S
    C263   O454      0.63874      .   S
    C195   O454      0.63874      .   S
    C172   O455      0.68608      .   S
    C256   O455      0.68608      .   S
    C115   O456      0.69353      .   S
    C117   O456      0.69353      .   S
    C114   O457      0.69340      .   S
    C116   O457      0.69340      .   S
    C261   O458      0.63052      .   S
    C181   O458      0.63052      .   S
    C260   O459      0.63057      .   S
    C180   O459      0.63057      .   S
    C3     O460      1.02438  1_565   S
    C265   O460      1.02438      .   S
    C3     O461      1.06931      .   S
    C259   O461      1.06931      .   S
    C3     O462      1.02799      .   S
    C227   O462      1.02799      .   S
    C2     O463      1.02258  1_565   S
    C264   O463      1.02258      .   S
    C2     O464      1.07006      .   S
    C258   O464      1.07006      .   S
    C2     O465      1.03021      .   S
    C226   O465      1.03021      .   S
    C80    O466      0.54462      .   S
    C198   O466      0.54462      .   S
    C81    O467      0.54461      .   S
    C199   O467      0.54461      .   S
    C194   O468      0.64003      .   S
    C264   O468      0.64003      .   S
    C194   O469      0.74521      .   S
    C196   O469      0.74521      .   S
    C195   O470      0.63972      .   S
    C265   O470      0.63972      .   S
    C195   O471      0.74513      .   S
    C197   O471      0.74513      .   S
    C108   O472      0.54460      .   S
    C8     O472      0.54460      .   S
    C108   O473      0.70098      .   S
    C106   O473      0.70098      .   S
    C109   O474      0.54460      .   S
    C9     O474      0.54460      .   S
    C109   O475      0.70094      .   S
    C107   O475      0.70094      .   S
    C181   O476      0.63628      .   S
    C259   O476      0.63628      .   S
    C181   O477      0.76866      .   S
    C179   O477      0.76866      .   S
    C180   O478      0.63616      .   S
    C258   O478      0.63616      .   S
    C180   O479      0.76849      .   S
    C178   O479      0.76849      .   S
    C256   O480      0.71237      .   S
    C178   O480      0.71237      .   S
    C257   O481      0.71235      .   S
    C179   O481      0.71235      .   S
    C117   O482      0.70346      .   S
    C106   O482      0.70346      .   S
    C117   O483      0.54449      .   S
    C15    O483      0.54449      .   S
    C116   O484      0.70343  1_455   S
    C107   O484      0.70343      .   S
    C116   O485      0.54457      .   S
    C14    O485      0.54457      .   S
    C45    O486      0.54518      .   S
    C153   O486      0.54518      .   S
    C44    O487      0.54520      .   S
    C152   O487      0.54520      .   S
    C198   O488      0.70096      .   S
    C196   O488      0.70096      .   S
    C198   O489      0.69650      .   S
    C200   O489      0.69650      .   S
    C199   O490      0.70103      .   S
    C197   O490      0.70103      .   S
    C199   O491      0.69656      .   S
    C201   O491      0.69656      .   S
    C107   O492      0.74502      .   S
    C105   O492      0.74502      .   S
    C106   O493      0.74495      .   S
    C104   O493      0.74495      .   S
    C196   O494      0.70345      .   S
    C206   O494      0.70345      .   S
    C178   O495      0.55141      .   S
    C64    O495      0.55141      .   S
    C178   O496      0.54969      .   S
    C66    O496      0.54969      .   S
    C179   O497      0.55129      .   S
    C65    O497      0.55129      .   S
    C179   O498      0.54947      .   S
    C67    O498      0.54947      .   S
    C197   O499      0.70336      .   S
    C207   O499      0.70336      .   S
    C227   O500      0.67549      .   S
    C153   O500      0.67549      .   S
    C227   O501      0.67547  1_565   S
    C161   O501      0.67547      .   S
    C226   O502      0.67542      .   S
    C152   O502      0.67542      .   S
    C226   O503      0.67548  1_565   S
    C160   O503      0.67548      .   S
    C51    O504      0.54454      .   S
    C161   O504      0.54454      .   S
    C50    O505      0.54458      .   S
    C160   O505      0.54458      .   S
    C153   O506      0.69369      .   S
    C155   O506      0.69369      .   S
    C152   O507      0.69379      .   S
    C154   O507      0.69379      .   S
    C83    O508      0.54422      .   S
    C201   O508      0.54422      .   S
    C82    O509      0.54418      .   S
    C200   O509      0.54418      .   S
    C161   O510      0.69492      .   S
    C159   O510      0.69492      .   S
    C160   O511      0.69158      .   S
    C158   O511      0.69158      .   S
    C201   O512      0.70157      .   S
    C203   O512      0.70157      .   S
    C200   O513      0.70159      .   S
    C202   O513      0.70159      .   S
    C206   O514      0.54427      .   S
    C86    O514      0.54427      .   S
    C206   O515      0.69391      .   S
    C204   O515      0.69391      .   S
    C207   O516      0.54427      .   S
    C87    O516      0.54427      .   S
    C207   O517      0.69383      .   S
    C205   O517      0.69383      .   S
    C155   O518      0.54558      .   S
    C47    O518      0.54558      .   S
    C155   O519      0.70076      .   S
    C157   O519      0.70076      .   S
    C154   O520      0.54564      .   S
    C46    O520      0.54564      .   S
    C154   O521      0.70083      .   S
    C156   O521      0.70083      .   S
    C105   O522      0.63880      .   S
    C233   O522      0.63880      .   S
    C105   O523      0.63959  1_655   S
    C234   O523      0.63959      .   S
    C104   O524      0.63865      .   S
    C232   O524      0.63865      .   S
    C104   O525      0.63987      .   S
    C235   O525      0.63987      .   S
    C21    O526      0.54523      .   S
    C123   O526      0.54523      .   S
    C23    O527      0.54559      .   S
    C125   O527      0.54559      .   S
    C20    O528      0.54517      .   S
    C122   O528      0.54517      .   S
    C22    O529      0.54558      .   S
    C124   O529      0.54558      .   S
    C158   O530      0.70282      .   S
    C156   O530      0.70282  1_565   S
    C158   O531      0.54665      .   S
    C48    O531      0.54665      .   S
    C159   O532      0.70011      .   S
    C157   O532      0.70011  1_565   S
    C159   O533      0.54578      .   S
    C49    O533      0.54578      .   S
    C233   O534      1.02007      .   S
    C1     O534      1.02007      .   S
    C232   O535      1.02038      .   S
    C0     O535      1.02038      .   S
    C203   O536      0.70222      .   S
    C205   O536      0.70222      .   S
    C203   O537      0.68619      .   S
    C267   O537      0.68619      .   S
    C202   O538      0.70226      .   S
    C204   O538      0.70226      .   S
    C202   O539      0.68613      .   S
    C266   O539      0.68613      .   S
    C89    O540      0.55124      .   S
    C209   O540      0.55124      .   S
    C88    O541      0.55127      .   S
    C208   O541      0.55127      .   S
    C73    O542      0.54579      .   S
    C189   O542      0.54579      .   S
    C72    O543      0.54580      .   S
    C188   O543      0.54580      .   S
    C204   O544      0.54458      .   S
    C84    O544      0.54458      .   S
    C205   O545      0.54462      .   S
    C85    O545      0.54462      .   S
    C157   O546      0.75095      .   S
    C162   O546      0.75095  1_455   S
    C156   O547      0.75129      .   S
    C163   O547      0.75129      .   S
    C75    O548      0.54456      .   S
    C191   O548      0.54456      .   S
    C74    O549      0.54456      .   S
    C190   O549      0.54456      .   S
    C123   O550      0.69372      .   S
    C125   O550      0.69372      .   S
    C123   O551      0.67538      .   S
    C225   O551      0.67538      .   S
    C122   O552      0.69370      .   S
    C124   O552      0.69370      .   S
    C122   O553      0.67539      .   S
    C224   O553      0.67539      .   S
    C125   O554      0.70082      .   S
    C127   O554      0.70082      .   S
    C124   O555      0.70074      .   S
    C126   O555      0.70074      .   S
    C267   O556      0.71263      .   S
    C209   O556      0.71263      .   S
    C266   O557      0.71261      .   S
    C208   O557      0.71261      .   S
    C209   O558      0.76883      .   S
    C211   O558      0.76883      .   S
    C209   O559      0.54949      .   S
    C91    O559      0.54949      .   S
    C208   O560      0.76893      .   S
    C210   O560      0.76893      .   S
    C208   O561      0.54935      .   S
    C90    O561      0.54935      .   S
    C189   O562      0.69496      .   S
    C191   O562      0.69496      .   S
    C188   O563      0.69491      .   S
    C190   O563      0.69491      .   S
    C29    O564      0.55058      .   S
    C133   O564      0.55058      .   S
    C28    O565      0.55459      .   S
    C132   O565      0.55459      .   S
    C53    O566      0.55014      .   S
    C163   O566      0.55014      .   S
    C52    O567      0.55014      .   S
    C162   O567      0.55014      .   S
    C269   O568      0.63624      .   S
    C211   O568      0.63624      .   S
    C269   O569      1.07006      .   S
    C0     O569      1.07006      .   S
    C268   O570      0.63604      .   S
    C210   O570      0.63604      .   S
    C268   O571      1.07200  1_455   S
    C1     O571      1.07200      .   S
    C211   O572      0.63054      .   S
    C271   O572      0.63054      .   S
    C210   O573      0.63069      .   S
    C270   O573      0.63069      .   S
    C163   O574      0.54998  1_565   S
    C55    O574      0.54998      .   S
    C162   O575      0.54999  1_565   S
    C54    O575      0.54999      .   S
    C225   O576      1.02830      .   S
    C1     O576      1.02830      .   S
    C224   O577      1.02853      .   S
    C0     O577      1.02853      .   S
    C127   O578      0.75103      .   S
    C133   O578      0.75103      .   S
    C126   O579      0.75104      .   S
    C132   O579      0.75104      .   S
    C0     O580      1.44587      .   S
    C5     O580      1.44587  1_554   S
    C1     O581      1.45226  1_656   S
    C4     O581      1.45226      .   S
    C2     O582      1.44736      .   S
    C6     O582      1.44736  1_545   S
    C3     O583      1.44740  1_565   S
    C7     O583      1.44740      .   S
