# CIF file generated by openbabel 2.4.90, see http://openbabel.sf.net
data_I
_chemical_name_common ''
_cell_length_a 5.723
_cell_length_b 10.564
_cell_length_c 16.265
_cell_angle_alpha 89.97
_cell_angle_beta 89.969
_cell_angle_gamma 87.555
_space_group_name_H-M_alt 'P 1'
_space_group_name_Hall 'P 1'
loop_
    _symmetry_equiv_pos_as_xyz
    x,y,z
loop_
    _atom_site_label
    _atom_site_type_symbol
    _atom_site_fract_x
    _atom_site_fract_y
    _atom_site_fract_z
    _atom_site_occupancy
    Cu0     Cu   0.75141   0.00520   0.06925   1.000
    Cu1     Cu   0.75163   0.50505   0.43073   1.000
    Cu2     Cu   0.24861   0.99480   0.93080   1.000
    H3      H    0.25520   0.21467   0.64901   1.000
    H4      H    0.09187   0.08357   0.76105   1.000
    H5      H    0.77967   0.33026   0.82082   1.000
    H6      H    0.59116   0.19731   0.92689   1.000
    H7      H    0.74349   0.28667   0.14851   1.000
    H8      H    0.90698   0.41731   0.26061   1.000
    H9      H    0.21861   0.17083   0.32037   1.000
    H10     H    0.40742   0.30322   0.42651   1.000
    H11     H    0.74482   0.78535   0.35107   1.000
    H12     H    0.90815   0.91645   0.23903   1.000
    H13     H    0.22039   0.66973   0.17925   1.000
    H14     H    0.40889   0.80268   0.07318   1.000
    H15     H    0.25654   0.71330   0.85156   1.000
    H16     H    0.09306   0.58266   0.73946   1.000
    H17     H    0.78141   0.82914   0.67971   1.000
    H18     H    0.59261   0.69676   0.57357   1.000
    C19     C    0.65319   0.35213   0.66143   1.000
    C20     C    0.53347   0.28313   0.72545   1.000
    C21     C    0.33519   0.21343   0.70964   1.000
    C22     C    0.24304   0.14072   0.77200   1.000
    C23     C    0.62562   0.27798   0.80562   1.000
    C24     C    0.52182   0.20396   0.86451   1.000
    C25     C    0.34590   0.14877   0.16108   1.000
    C26     C    0.46527   0.21794   0.22502   1.000
    C27     C    0.66347   0.28774   0.20917   1.000
    C28     C    0.75576   0.36016   0.27158   1.000
    C29     C    0.37283   0.22304   0.30518   1.000
    C30     C    0.47682   0.29675   0.36411   1.000
    C31     C    0.34685   0.64787   0.33864   1.000
    Cu32    Cu   0.24840   0.49494   0.56933   1.000
    C33     C    0.46657   0.71687   0.27462   1.000
    C34     C    0.66483   0.78659   0.29044   1.000
    C35     C    0.75699   0.85930   0.22807   1.000
    C36     C    0.37443   0.72202   0.19445   1.000
    C37     C    0.47823   0.79604   0.13556   1.000
    C38     C    0.65413   0.85121   0.83899   1.000
    C39     C    0.53476   0.78203   0.77505   1.000
    C40     C    0.33656   0.71223   0.79091   1.000
    C41     C    0.24427   0.63982   0.72850   1.000
    C42     C    0.62719   0.77693   0.69489   1.000
    C43     C    0.52320   0.70323   0.63596   1.000
    N44     N    0.56315   0.39168   0.58798   1.000
    N45     N    0.74578   0.43996   0.54724   1.000
    N46     N    0.93651   0.43026   0.59572   1.000
    N47     N    0.88158   0.37702   0.66762   1.000
    N48     N    0.33403   0.13389   0.84871   1.000
    N49     N    0.43656   0.10846   0.08789   1.000
    N50     N    0.25412   0.05994   0.04725   1.000
    N51     N    0.06286   0.07040   0.09549   1.000
    N52     N    0.11732   0.12419   0.16720   1.000
    N53     N    0.66492   0.36666   0.34835   1.000
    N54     N    0.43689   0.60831   0.41208   1.000
    N55     N    0.25426   0.56003   0.45283   1.000
    N56     N    0.06353   0.56973   0.40434   1.000
    N57     N    0.11847   0.62298   0.33244   1.000
    N58     N    0.66601   0.86611   0.15136   1.000
    N59     N    0.56347   0.89153   0.91218   1.000
    N60     N    0.74590   0.94006   0.95281   1.000
    N61     N    0.93717   0.92959   0.90457   1.000
    N62     N    0.88270   0.87579   0.83287   1.000
    N63     N    0.33510   0.63332   0.65172   1.000
loop_
    _geom_bond_atom_site_label_1
    _geom_bond_atom_site_label_2
    _geom_bond_distance
    _geom_bond_site_symmetry_2
    _ccdc_geom_bond_type
    N50    N49       1.35516      .   S
    N50    N51       1.34718      .   S
    N50    Cu2       2.01624  1_544   S
    Cu0    N49       2.08825      .   S
    Cu0    N51       1.98482  1_655   S
    Cu0    N58       2.05904  1_545   S
    Cu0    N60       2.01609  1_544   S
    H14    C37       1.09073      .   S
    N49    C25       1.35971      .   S
    N51    N52       1.34037      .   S
    C37    N58       1.35546      .   S
    C37    C36       1.38569      .   S
    H7     C27       1.08730      .   S
    N58    C35       1.35302      .   S
    C25    N52       1.34808      .   S
    C25    C26       1.45823      .   S
    H13    C36       1.08873      .   S
    C36    C33       1.40690      .   S
    C27    C26       1.40275      .   S
    C27    C28       1.38940      .   S
    C26    C29       1.40688      .   S
    C35    H12       1.09070      .   S
    C35    C34       1.38933      .   S
    H8     C28       1.09069      .   S
    C28    N53       1.35301      .   S
    C33    C34       1.40280      .   S
    C33    C31       1.45814      .   S
    C34    H11       1.08729      .   S
    C29    H9        1.08876      .   S
    C29    C30       1.38569      .   S
    N57    C31       1.34805      .   S
    N57    N56       1.34039      .   S
    C31    N54       1.35976      .   S
    N53    C30       1.35547      .   S
    N53    Cu1       2.06001      .   S
    C30    H10       1.09073      .   S
    N56    Cu1       1.98502  1_455   S
    N56    N55       1.34734      .   S
    N54    Cu1       2.08781      .   S
    N54    N55       1.35502      .   S
    Cu1    N45       2.01633      .   S
    N55    Cu32      2.01618      .   S
    N45    N44       1.35503      .   S
    N45    N46       1.34733      .   S
    Cu32   N44       2.08786      .   S
    Cu32   N46       1.98502  1_455   S
    Cu32   N63       2.06007      .   S
    H18    C43       1.09071      .   S
    N44    C19       1.35976      .   S
    N46    N47       1.34039      .   S
    C43    N63       1.35548      .   S
    C43    C42       1.38567      .   S
    H3     C21       1.08728      .   S
    N63    C41       1.35301      .   S
    C19    N47       1.34805      .   S
    C19    C20       1.45815      .   S
    H17    C42       1.08875      .   S
    C42    C39       1.40689      .   S
    C21    C20       1.40281      .   S
    C21    C22       1.38932      .   S
    C20    C23       1.40690      .   S
    C41    H16       1.09070      .   S
    C41    C40       1.38940      .   S
    H4     C22       1.09070      .   S
    C22    N48       1.35302      .   S
    C39    C40       1.40274      .   S
    C39    C38       1.45824      .   S
    C40    H15       1.08730      .   S
    C23    H5        1.08872      .   S
    C23    C24       1.38569      .   S
    N62    C38       1.34808      .   S
    N62    N61       1.34035      .   S
    C38    N59       1.35972      .   S
    N48    C24       1.35547      .   S
    N48    Cu2       2.05898  1_545   S
    C24    H6        1.09075      .   S
    N61    Cu2       1.98479  1_655   S
    N61    N60       1.34720      .   S
    N59    Cu2       2.08824      .   S
    N59    N60       1.35516      .   S
