# CIF file generated by openbabel 2.4.90, see http://openbabel.sf.net
data_I
_chemical_name_common ''
_cell_length_a 5.723
_cell_length_b 10.564
_cell_length_c 16.265
_cell_angle_alpha 89.97
_cell_angle_beta 89.969
_cell_angle_gamma 87.555
_space_group_name_H-M_alt 'P 1'
_space_group_name_Hall 'P 1'
loop_
    _symmetry_equiv_pos_as_xyz
    x,y,z
loop_
    _atom_site_label
    _atom_site_type_symbol
    _atom_site_fract_x
    _atom_site_fract_y
    _atom_site_fract_z
    _atom_site_occupancy
    N0      N    0.53942   0.27133   0.72958   1.000
    N1      N    0.45949   0.22947   0.22922   1.000
    N2      N    0.46062   0.72867   0.27049   1.000
    N3      N    0.54054   0.77051   0.77085   1.000
    Zr4     Zr   0.75163   0.50505   0.43073   1.000
    O5      O    0.69784   0.43848   0.52000   1.000
    O6      O    0.66776   0.41886   0.37005   1.000
    Zr7     Zr   0.24861   0.99480   0.93080   1.000
    O8      O    0.33199   0.08132   0.87024   1.000
    O9      O    0.30202   0.06161   0.01996   1.000
    Zr10    Zr   0.75141   0.00520   0.06925   1.000
    O11     O    0.66804   0.91868   0.12983   1.000
    O12     O    0.69800   0.93838   0.98010   1.000
    Zr13    Zr   0.24840   0.49494   0.56933   1.000
    O14     O    0.30219   0.56151   0.48006   1.000
    O15     O    0.33228   0.58113   0.63001   1.000
    O16     O    0.32134   0.42854   0.61221   1.000
    O17     O    0.67822   0.07180   0.11205   1.000
    O18     O    0.67870   0.57145   0.38785   1.000
    O19     O    0.32181   0.92819   0.88801   1.000
loop_
    _geom_bond_atom_site_label_1
    _geom_bond_atom_site_label_2
    _geom_bond_distance
    _geom_bond_site_symmetry_2
    _ccdc_geom_bond_type
    Zr4    O5        1.64763      .   S
    N0     O5        3.96062      .   S
    Zr4    O6        1.43950      .   S
    N1     O6        3.29871      .   S
    Zr7    O8        1.43852  1_565   S
    N0     O8        3.29667      .   S
    Zr7    O9        1.64760  1_566   S
    N1     O9        3.96069      .   S
    Zr10   O11       1.43855  1_545   S
    N2     O11       3.29672      .   S
    Zr10   O12       1.64755  1_544   S
    N3     O12       3.96060      .   S
    Zr13   O14       1.64757      .   S
    N2     O14       3.96052      .   S
    Zr13   O15       1.43953      .   S
    N3     O15       3.29878      .   S
    Zr13   O16       1.06182      .   S
    N0     O16       2.78979      .   S
    Zr10   O17       1.06302      .   S
    N1     O17       2.79219      .   S
    N2     O18       2.78971      .   S
    Zr4    O18       1.06177      .   S
    N3     O19       2.79216      .   S
    Zr7    O19       1.06300      .   S
