# CIF file generated by openbabel 2.4.90, see http://openbabel.sf.net
data_I
_chemical_name_common ''
_cell_length_a 5.723
_cell_length_b 10.564
_cell_length_c 16.265
_cell_angle_alpha 89.97
_cell_angle_beta 89.969
_cell_angle_gamma 87.555
_space_group_name_H-M_alt 'P 1'
_space_group_name_Hall 'P 1'
loop_
    _symmetry_equiv_pos_as_xyz
    x,y,z
loop_
    _atom_site_label
    _atom_site_type_symbol
    _atom_site_fract_x
    _atom_site_fract_y
    _atom_site_fract_z
    _atom_site_occupancy
    N0      N    0.53942   0.27133   0.72958   1.000
    N1      N    0.45949   0.22947   0.22922   1.000
    N2      N    0.46062   0.72867   0.27049   1.000
    N3      N    0.54054   0.77051   0.77085   1.000
    Zr4     Zr   0.75163   0.50505   0.43073   1.000
    O5      O    0.63953   0.57386   0.38834   1.000
    O6      O    0.71786   0.56904   0.38737   1.000
    O7      O    0.69784   0.43848   0.52000   1.000
    O8      O    0.66776   0.41886   0.37005   1.000
    Zr9     Zr   0.24861   0.99480   0.93080   1.000
    O10     O    0.28266   0.93057   0.88754   1.000
    O11     O    0.36095   0.92582   0.88849   1.000
    O12     O    0.33199   0.08132   0.87024   1.000
    O13     O    0.30202   0.06161   0.01996   1.000
    Zr14    Zr   0.75141   0.00520   0.06925   1.000
    O15     O    0.66804   0.91868   0.12983   1.000
    O16     O    0.69800   0.93838   0.98010   1.000
    O17     O    0.71736   0.06942   0.11253   1.000
    O18     O    0.63907   0.07418   0.11157   1.000
    Zr19    Zr   0.24840   0.49494   0.56933   1.000
    O20     O    0.30219   0.56151   0.48006   1.000
    O21     O    0.36050   0.42613   0.61172   1.000
    O22     O    0.28217   0.43095   0.61269   1.000
    O23     O    0.33228   0.58113   0.63001   1.000
loop_
    _geom_bond_atom_site_label_1
    _geom_bond_atom_site_label_2
    _geom_bond_distance
    _geom_bond_site_symmetry_2
    _ccdc_geom_bond_type
    Zr4    O5        1.17282      .   S
    N2     O5        2.69313      .   S
    Zr4    O6        0.99002      .   S
    N2     O6        2.90050      .   S
    Zr4    O7        1.64763      .   S
    N0     O7        3.96062      .   S
    Zr4    O8        1.43950      .   S
    N1     O8        3.29871      .   S
    Zr9    O10       0.99126      .   S
    N3     O10       2.90288      .   S
    Zr9    O11       1.17394      .   S
    N3     O11       2.69563      .   S
    Zr9    O12       1.43852  1_565   S
    N0     O12       3.29667      .   S
    Zr9    O13       1.64760  1_566   S
    N1     O13       3.96069      .   S
    Zr14   O15       1.43855  1_545   S
    N2     O15       3.29672      .   S
    Zr14   O16       1.64755  1_544   S
    N3     O16       3.96060      .   S
    Zr14   O17       0.99128      .   S
    N1     O17       2.90291      .   S
    Zr14   O18       1.17396      .   S
    N1     O18       2.69566      .   S
    Zr19   O20       1.64757      .   S
    N2     O20       3.96052      .   S
    Zr19   O21       1.17286      .   S
    N0     O21       2.69321      .   S
    Zr19   O22       0.99006      .   S
    N0     O22       2.90058      .   S
    Zr19   O23       1.43953      .   S
    N3     O23       3.29878      .   S
