# CIF file generated by openbabel 2.4.90, see http://openbabel.sf.net
data_I
_chemical_name_common ''
_cell_length_a 5.723
_cell_length_b 10.564
_cell_length_c 16.265
_cell_angle_alpha 89.97
_cell_angle_beta 89.969
_cell_angle_gamma 87.555
_space_group_name_H-M_alt 'P 1'
_space_group_name_Hall 'P 1'
loop_
    _symmetry_equiv_pos_as_xyz
    x,y,z
loop_
    _atom_site_label
    _atom_site_type_symbol
    _atom_site_fract_x
    _atom_site_fract_y
    _atom_site_fract_z
    _atom_site_occupancy
    Zr0     Zr   0.24840   0.49494   0.56933   1.000
    Zr1     Zr   0.75141   0.00520   0.06925   1.000
    Zr2     Zr   0.75163   0.50505   0.43073   1.000
    Zr3     Zr   0.24861   0.99480   0.93080   1.000
    N4      N    0.53942   0.27133   0.72958   1.000
    O5      O    0.47260   0.35732   0.65412   1.000
    O6      O    0.64406   0.37192   0.60928   1.000
    O7      O    0.31594   0.36697   0.65605   1.000
    O8      O    0.41537   0.16784   0.80967   1.000
    N9      N    0.45949   0.22947   0.22922   1.000
    O10     O    0.52674   0.14315   0.15390   1.000
    O11     O    0.35543   0.12842   0.10913   1.000
    O12     O    0.68331   0.13364   0.15580   1.000
    O13     O    0.58388   0.33266   0.30938   1.000
    N14     N    0.46062   0.72867   0.27049   1.000
    O15     O    0.52744   0.64268   0.34595   1.000
    O16     O    0.35598   0.62808   0.39078   1.000
    O17     O    0.68410   0.63303   0.34401   1.000
    O18     O    0.58467   0.83216   0.19040   1.000
    N19     N    0.54054   0.77051   0.77085   1.000
    O20     O    0.47329   0.85683   0.84617   1.000
    O21     O    0.64460   0.87157   0.89094   1.000
    O22     O    0.31671   0.86635   0.84427   1.000
    O23     O    0.41615   0.66732   0.69069   1.000
loop_
    _geom_bond_atom_site_label_1
    _geom_bond_atom_site_label_2
    _geom_bond_distance
    _geom_bond_site_symmetry_2
    _ccdc_geom_bond_type
    N4     O5        1.56449      .   S
    Zr0    O5        2.34573      .   S
    N4     O6        2.31670      .   S
    Zr2    O6        3.29527      .   S
    N4     O7        1.99419      .   S
    Zr0    O7        1.98013      .   S
    N4     O8        1.86010      .   S
    Zr3    O8        2.87704  1_565   S
    N9     O10       1.56570      .   S
    Zr1    O10       2.34792      .   S
    N9     O11       2.31681      .   S
    Zr3    O11       3.29521  1_566   S
    N9     O12       1.99523      .   S
    Zr1    O12       1.98256      .   S
    N9     O13       1.86109      .   S
    Zr2    O13       2.87899      .   S
    N14    O15       1.56446      .   S
    Zr2    O15       2.34564      .   S
    N14    O16       2.31666      .   S
    Zr0    O16       3.29515      .   S
    N14    O17       1.99416      .   S
    Zr2    O17       1.98004      .   S
    N14    O18       1.86012      .   S
    Zr1    O18       2.87709  1_545   S
    N19    O20       1.56569      .   S
    Zr3    O20       2.34789      .   S
    N19    O21       2.31678      .   S
    Zr1    O21       3.29510  1_544   S
    N19    O22       1.99522      .   S
    Zr3    O22       1.98252      .   S
    N19    O23       1.86112      .   S
    Zr0    O23       2.87906      .   S
