# CIF file generated by openbabel 2.4.90, see http://openbabel.sf.net
data_I
_chemical_name_common ''
_cell_length_a 15.41
_cell_length_b 21.433
_cell_length_c 21.434
_cell_angle_alpha 119.984
_cell_angle_beta 89.984
_cell_angle_gamma 90.008
_space_group_name_H-M_alt 'P 1'
_space_group_name_Hall 'P 1'
loop_
    _symmetry_equiv_pos_as_xyz
    x,y,z
loop_
    _atom_site_label
    _atom_site_type_symbol
    _atom_site_fract_x
    _atom_site_fract_y
    _atom_site_fract_z
    _atom_site_occupancy
    H0      H    0.06718   0.15364   0.40672   1.000
    H1      H    0.56720   0.15364   0.40672   1.000
    H2      H    0.27059   0.06634   0.41130   1.000
    H3      H    0.77060   0.06634   0.41130   1.000
    H4      H    0.33798   0.15978   0.52402   1.000
    H5      H    0.83799   0.15978   0.52402   1.000
    H6      H    0.50079   0.06172   0.29406   1.000
    H7      H    0.00000   0.06172   0.29406   1.000
    H8      H    0.40048   0.25314   0.84620   1.000
    H9      H    0.90049   0.25314   0.84628   1.000
    H10     H    0.10394   0.34508   0.93371   1.000
    H11     H    0.60394   0.34508   0.93370   1.000
    H12     H    0.17133   0.36432   0.84018   1.000
    H13     H    0.67134   0.36432   0.84018   1.000
    H14     H    0.33407   0.23243   0.93820   1.000
    H15     H    0.83408   0.23242   0.93827   1.000
    H16     H    0.23375   0.59316   0.74682   1.000
    H17     H    0.73376   0.59316   0.74682   1.000
    H18     H    0.43723   0.58875   0.65499   1.000
    H19     H    0.93724   0.58875   0.65499   1.000
    H20     H    0.00459   0.47596   0.63563   1.000
    H21     H    0.50460   0.47596   0.63563   1.000
    H22     H    0.16737   0.70589   0.76763   1.000
    H23     H    0.66738   0.70589   0.76763   1.000
    H24     H    0.06714   0.84632   0.59317   1.000
    H25     H    0.56715   0.84633   0.59317   1.000
    H26     H    0.27061   0.93375   0.58871   1.000
    H27     H    0.77063   0.93375   0.58871   1.000
    H28     H    0.33797   0.84027   0.47596   1.000
    H29     H    0.83798   0.84027   0.47596   1.000
    H30     H    0.50078   0.93829   0.70586   1.000
    H31     H    0.00000   0.93828   0.70586   1.000
    H32     H    0.40048   0.74688   0.15362   1.000
    H33     H    0.90049   0.74689   0.15362   1.000
    H34     H    0.10395   0.65488   0.06630   1.000
    H35     H    0.60396   0.65489   0.06633   1.000
    H36     H    0.17137   0.63565   0.15982   1.000
    H37     H    0.67138   0.63565   0.15982   1.000
    H38     H    0.33404   0.76759   0.06167   1.000
    H39     H    0.83405   0.76759   0.06167   1.000
    H40     H    0.23379   0.40684   0.25312   1.000
    H41     H    0.73380   0.40684   0.25312   1.000
    H42     H    0.43718   0.41120   0.34490   1.000
    H43     H    0.93720   0.41120   0.34490   1.000
    H44     H    0.00456   0.52401   0.36428   1.000
    H45     H    0.50457   0.52401   0.36428   1.000
    H46     H    0.16740   0.29410   0.23230   1.000
    H47     H    0.66741   0.29410   0.23230   1.000
    H48     H    0.26623   0.74687   0.59320   1.000
    H49     H    0.76625   0.74687   0.59320   1.000
    H50     H    0.06280   0.65506   0.58873   1.000
    H51     H    0.56281   0.65506   0.58873   1.000
    H52     H    0.49542   0.63569   0.47596   1.000
    H53     H    0.99543   0.63569   0.47596   1.000
    H54     H    0.33263   0.76768   0.70591   1.000
    H55     H    0.83264   0.76769   0.70591   1.000
    H56     H    0.43284   0.40678   0.15366   1.000
    H57     H    0.93285   0.40678   0.15366   1.000
    H58     H    0.22942   0.41131   0.06629   1.000
    H59     H    0.72943   0.41131   0.06629   1.000
    H60     H    0.16205   0.52404   0.15977   1.000
    H61     H    0.66206   0.52404   0.15977   1.000
    H62     H    0.99922   0.29410   0.06171   1.000
    H63     H    0.49923   0.29410   0.06171   1.000
    H64     H    0.09955   0.84631   0.25314   1.000
    H65     H    0.59956   0.84631   0.25314   1.000
    H66     H    0.39605   0.93375   0.34510   1.000
    H67     H    0.89607   0.93375   0.34510   1.000
    H68     H    0.32866   0.84023   0.36435   1.000
    H69     H    0.82867   0.84023   0.36435   1.000
    H70     H    0.16597   0.93829   0.23241   1.000
    H71     H    0.66598   0.93829   0.23241   1.000
    H72     H    0.26624   0.25317   0.40689   1.000
    H73     H    0.76625   0.25317   0.40689   1.000
    H74     H    0.06281   0.34494   0.41115   1.000
    H75     H    0.56282   0.34494   0.41115   1.000
    H76     H    0.49547   0.36433   0.52398   1.000
    H77     H    0.99548   0.36433   0.52398   1.000
    H78     H    0.33260   0.23233   0.29412   1.000
    H79     H    0.83261   0.23233   0.29412   1.000
    H80     H    0.43286   0.59325   0.84636   1.000
    H81     H    0.93287   0.59325   0.84630   1.000
    H82     H    0.22937   0.58865   0.93369   1.000
    H83     H    0.72938   0.58865   0.93300   1.000
    H84     H    0.16199   0.47594   0.84021   1.000
    H85     H    0.66200   0.47593   0.84020   1.000
    H86     H    0.99925   0.70591   0.93830   1.000
    H87     H    0.49926   0.70591   0.93831   1.000
    C88     C    0.63080   0.34372   0.26197   1.000
    C89     C    0.04710   0.34393   0.28767   1.000
    C90     C    0.54711   0.34393   0.28767   1.000
    C91     C    0.43649   0.25340   0.21015   1.000
    H92     H    0.09953   0.15366   0.74680   1.000
    H93     H    0.59954   0.15366   0.74680   1.000
    H94     H    0.39610   0.06636   0.65493   1.000
    H95     H    0.89612   0.06636   0.65493   1.000
    H96     H    0.32868   0.15984   0.63567   1.000
    H97     H    0.82869   0.15984   0.63567   1.000
    H98     H    0.16597   0.06171   0.76761   1.000
    H99     H    0.66599   0.06172   0.76761   1.000
    C100    C    0.00231   0.13395   0.40746   1.000
    C101    C    0.50232   0.13395   0.40746   1.000
    C102    C    0.33581   0.08509   0.40980   1.000
    C103    C    0.83582   0.08509   0.40980   1.000
    C104    C    0.37381   0.13732   0.47360   1.000
    C105    C    0.87382   0.13732   0.47360   1.000
    C106    C    0.45784   0.16213   0.47303   1.000
    C107    C    0.95785   0.16213   0.47303   1.000
    C108    C    0.46418   0.08169   0.34369   1.000
    C109    C    0.96420   0.08169   0.34369   1.000
    C110    C    0.38048   0.05624   0.34395   1.000
    C111    C    0.88050   0.05624   0.34395   1.000
    C112    C    0.26983   0.04326   0.25343   1.000
    C113    C    0.76984   0.04326   0.25343   1.000
    C114    C    0.33562   0.27358   0.86599   1.000
    C115    C    0.83563   0.27358   0.86599   1.000
    C116    C    0.49761   0.32472   0.40973   1.000
    C117    C    0.99762   0.32472   0.40973   1.000
    C118    C    0.45963   0.33635   0.47350   1.000
    C119    C    0.95965   0.33635   0.47358   1.000
    C120    C    0.37561   0.31100   0.47308   1.000
    C121    C    0.16914   0.32481   0.91493   1.000
    C122    C    0.66915   0.32481   0.91493   1.000
    C123    C    0.20714   0.33637   0.86266   1.000
    C124    C    0.70715   0.33637   0.86266   1.000
    C125    C    0.29115   0.31098   0.83782   1.000
    C126    C    0.79116   0.31098   0.83782   1.000
    C127    C    0.29748   0.26208   0.91829   1.000
    C128    C    0.79749   0.26208   0.91829   1.000
    C129    C    0.21379   0.28779   0.94376   1.000
    C130    C    0.71380   0.28779   0.94376   1.000
    C131    C    0.10317   0.21020   0.95674   1.000
    C132    C    0.60317   0.21020   0.95674   1.000
    C133    C    0.16889   0.59246   0.72640   1.000
    C134    C    0.66890   0.59246   0.72640   1.000
    C135    C    0.00242   0.59021   0.67522   1.000
    C136    C    0.50243   0.59021   0.67520   1.000
    C137    C    0.04041   0.52638   0.66361   1.000
    C138    C    0.54042   0.52638   0.66361   1.000
    C139    C    0.12442   0.52690   0.68897   1.000
    C140    C    0.62443   0.52690   0.68897   1.000
    C141    C    0.13077   0.65627   0.73795   1.000
    C142    C    0.63078   0.65627   0.73795   1.000
    C143    C    0.04710   0.65604   0.71225   1.000
    C144    C    0.54711   0.65604   0.71225   1.000
    C145    C    0.43649   0.74658   0.78981   1.000
    C146    C    0.93650   0.74658   0.78981   1.000
    C147    C    0.00228   0.86604   0.59245   1.000
    C148    C    0.50229   0.86604   0.59245   1.000
    C149    C    0.33582   0.91497   0.59018   1.000
    C150    C    0.83583   0.91497   0.59018   1.000
    C151    C    0.37380   0.86272   0.52637   1.000
    C152    C    0.87381   0.86272   0.52637   1.000
    C153    C    0.45781   0.83788   0.52690   1.000
    C154    C    0.95782   0.83788   0.52690   1.000
    C155    C    0.46418   0.91832   0.65624   1.000
    C156    C    0.96419   0.91832   0.65624   1.000
    C157    C    0.38049   0.94379   0.65601   1.000
    C158    C    0.88050   0.94380   0.65601   1.000
    C159    C    0.26983   0.95675   0.74655   1.000
    C160    C    0.76984   0.95675   0.74655   1.000
    C161    C    0.33562   0.72643   0.13394   1.000
    C162    C    0.83563   0.72643   0.13395   1.000
    C163    C    0.16915   0.67517   0.08500   1.000
    C164    C    0.66916   0.67517   0.08508   1.000
    C165    C    0.20717   0.66362   0.13730   1.000
    C166    C    0.70718   0.66362   0.13733   1.000
    C167    C    0.29117   0.68902   0.16214   1.000
    C168    C    0.79118   0.68903   0.16214   1.000
    C169    C    0.29747   0.73793   0.08167   1.000
    C170    C    0.79748   0.73793   0.08167   1.000
    C171    C    0.21378   0.71220   0.05623   1.000
    C172    C    0.71379   0.71220   0.05620   1.000
    C173    C    0.10316   0.78979   0.04320   1.000
    C174    C    0.60317   0.78979   0.04320   1.000
    C175    C    0.16891   0.40753   0.27353   1.000
    C176    C    0.66893   0.40753   0.27353   1.000
    C177    C    0.00240   0.40976   0.32468   1.000
    C178    C    0.50241   0.40976   0.32468   1.000
    C179    C    0.04039   0.47359   0.33630   1.000
    C180    C    0.54040   0.47359   0.33630   1.000
    C181    C    0.12442   0.47308   0.31090   1.000
    C182    C    0.62443   0.47308   0.31095   1.000
    C183    C    0.13079   0.34372   0.26197   1.000
    F184    F    0.62990   0.77038   0.69830   1.000
    F185    F    0.09980   0.81562   0.81270   1.000
    F186    F    0.59982   0.81562   0.81270   1.000
    F187    F    0.02217   0.84573   0.74679   1.000
    F188    F    0.52218   0.84573   0.74679   1.000
    F189    F    0.29654   0.30168   0.07205   1.000
    F190    F    0.79655   0.30168   0.07205   1.000
    F191    F    0.26648   0.18721   0.00282   1.000
    C192    C    0.93650   0.25340   0.21015   1.000
    C193    C    0.33110   0.72646   0.59240   1.000
    C194    C    0.83111   0.72646   0.59240   1.000
    C195    C    0.49760   0.67529   0.59020   1.000
    C196    C    0.99761   0.67529   0.59020   1.000
    C197    C    0.45960   0.66367   0.52638   1.000
    C198    C    0.95961   0.66367   0.52638   1.000
    C199    C    0.37558   0.68903   0.52692   1.000
    C200    C    0.87559   0.68903   0.52692   1.000
    C201    C    0.36923   0.73801   0.65628   1.000
    C202    C    0.86924   0.73801   0.65628   1.000
    C203    C    0.45291   0.71230   0.65604   1.000
    C204    C    0.95292   0.71230   0.65604   1.000
    C205    C    0.06353   0.78983   0.74656   1.000
    C206    C    0.56354   0.78983   0.74656   1.000
    C207    C    0.49771   0.40751   0.13396   1.000
    C208    C    0.99772   0.40751   0.13396   1.000
    C209    C    0.16421   0.40982   0.08506   1.000
    C210    C    0.66422   0.40982   0.08506   1.000
    C211    C    0.12622   0.47362   0.13730   1.000
    C212    C    0.62623   0.47362   0.13730   1.000
    C213    C    0.04219   0.47307   0.16213   1.000
    C214    C    0.54220   0.47307   0.16213   1.000
    C215    C    0.03583   0.34373   0.08160   1.000
    C216    C    0.53584   0.34373   0.08160   1.000
    C217    C    0.11953   0.34397   0.05623   1.000
    C218    C    0.61954   0.34397   0.05623   1.000
    C219    C    0.23018   0.25343   0.04324   1.000
    C220    C    0.73019   0.25343   0.04324   1.000
    C221    C    0.16441   0.86602   0.27358   1.000
    C222    C    0.66442   0.86602   0.27358   1.000
    C223    C    0.33086   0.91496   0.32482   1.000
    C224    C    0.83088   0.91496   0.32482   1.000
    C225    C    0.29286   0.86270   0.33639   1.000
    C226    C    0.79288   0.86270   0.33639   1.000
    C227    C    0.20887   0.83786   0.31099   1.000
    C228    C    0.70888   0.83786   0.31099   1.000
    C229    C    0.20255   0.91831   0.26207   1.000
    C230    C    0.70256   0.91831   0.26207   1.000
    C231    C    0.28622   0.94378   0.28770   1.000
    C232    C    0.78623   0.94378   0.28779   1.000
    C233    C    0.39685   0.95675   0.21018   1.000
    C234    C    0.89686   0.95675   0.21018   1.000
    C235    C    0.33111   0.27357   0.40755   1.000
    C236    C    0.83112   0.27357   0.40755   1.000
    C237    C    0.87562   0.31100   0.47308   1.000
    C238    C    0.36921   0.26201   0.34373   1.000
    C239    C    0.86923   0.26200   0.34373   1.000
    C240    C    0.45290   0.28770   0.34392   1.000
    C241    C    0.95291   0.28770   0.34392   1.000
    C242    C    0.06352   0.21016   0.25339   1.000
    C243    C    0.56353   0.21016   0.25339   1.000
    C244    C    0.49771   0.59250   0.86605   1.000
    C245    C    0.99773   0.59250   0.86605   1.000
    C246    C    0.16417   0.59016   0.91493   1.000
    C247    C    0.66418   0.59016   0.91490   1.000
    C248    C    0.12617   0.52636   0.86269   1.000
    C249    C    0.62618   0.52636   0.86269   1.000
    C250    C    0.04217   0.52693   0.83786   1.000
    C251    C    0.54218   0.52693   0.83787   1.000
    C252    C    0.03584   0.65627   0.91830   1.000
    C253    C    0.53585   0.65627   0.91833   1.000
    C254    C    0.11952   0.65601   0.94378   1.000
    C255    C    0.61953   0.65601   0.94378   1.000
    C256    C    0.23018   0.74655   0.95673   1.000
    C257    C    0.73019   0.74655   0.95673   1.000
    C258    C    0.16440   0.13398   0.72644   1.000
    C259    C    0.66441   0.13398   0.72644   1.000
    C260    C    0.33089   0.08511   0.67520   1.000
    C261    C    0.83091   0.08511   0.67520   1.000
    C262    C    0.29288   0.13735   0.66364   1.000
    C263    C    0.79289   0.13735   0.66360   1.000
    C264    C    0.20885   0.16216   0.68902   1.000
    C265    C    0.70887   0.16216   0.68902   1.000
    C266    C    0.20255   0.08171   0.73795   1.000
    C267    C    0.70256   0.08171   0.73795   1.000
    C268    C    0.28624   0.05626   0.71223   1.000
    C269    C    0.78626   0.05626   0.71223   1.000
    C270    C    0.39685   0.04326   0.78979   1.000
    C271    C    0.89687   0.04326   0.78979   1.000
    C272    C    0.33335   0.00002   0.27486   1.000
    C273    C    0.83336   0.00002   0.27486   1.000
    C274    C    0.16666   0.27486   0.00000   1.000
    C275    C    0.66667   0.27486   0.00000   1.000
    C276    C    0.00001   0.72518   0.72516   1.000
    C277    C    0.50002   0.72518   0.72516   1.000
    C278    C    0.33336   0.00002   0.72513   1.000
    C279    C    0.83337   0.00002   0.72513   1.000
    C280    C    0.16666   0.72511   0.00000   1.000
    C281    C    0.66667   0.72511   0.00000   1.000
    C282    C    0.00000   0.27480   0.27478   1.000
    C283    C    0.50000   0.27480   0.27478   1.000
    F284    F    0.20346   0.07207   0.30168   1.000
    F285    F    0.70348   0.07207   0.30168   1.000
    F286    F    0.23354   0.00283   0.18721   1.000
    F287    F    0.73355   0.00283   0.18721   1.000
    F288    F    0.31117   0.09893   0.25318   1.000
    F289    F    0.81118   0.09893   0.25318   1.000
    F290    F    0.03680   0.22963   0.92793   1.000
    F291    F    0.53681   0.22963   0.92793   1.000
    F292    F    0.06686   0.18438   0.99718   1.000
    F293    F    0.56687   0.18438   0.99718   1.000
    F294    F    0.14452   0.15431   0.90108   1.000
    F295    F    0.64453   0.15431   0.90108   1.000
    F296    F    0.37013   0.69832   0.77038   1.000
    F297    F    0.87014   0.69832   0.77038   1.000
    F298    F    0.40020   0.81281   0.81562   1.000
    F299    F    0.90021   0.81281   0.81562   1.000
    F300    F    0.47783   0.74680   0.84570   1.000
    F301    F    0.97784   0.74680   0.84570   1.000
    F302    F    0.20347   0.92793   0.69831   1.000
    F303    F    0.70348   0.92793   0.69831   1.000
    F304    F    0.23353   0.99717   0.81278   1.000
    F305    F    0.73354   0.99717   0.81278   1.000
    F306    F    0.31117   0.90108   0.74679   1.000
    F307    F    0.81118   0.90108   0.74670   1.000
    F308    F    0.03678   0.77036   0.07200   1.000
    F309    F    0.53680   0.77036   0.07200   1.000
    F310    F    0.06686   0.81560   0.00280   1.000
    F311    F    0.56688   0.81560   0.00280   1.000
    F312    F    0.14450   0.84568   0.09889   1.000
    F313    F    0.64451   0.84568   0.09889   1.000
    F314    F    0.37013   0.30166   0.22960   1.000
    F315    F    0.87014   0.30166   0.22960   1.000
    F316    F    0.40020   0.18717   0.18436   1.000
    F317    F    0.90021   0.18717   0.18436   1.000
    F318    F    0.47785   0.25318   0.15425   1.000
    F319    F    0.97786   0.25318   0.15425   1.000
    F320    F    0.12989   0.77038   0.69830   1.000
    F321    F    0.76649   0.18721   0.00282   1.000
    F322    F    0.18884   0.25320   0.09892   1.000
    F323    F    0.68886   0.25320   0.09892   1.000
    F324    F    0.46322   0.92793   0.22961   1.000
    F325    F    0.96323   0.92793   0.22961   1.000
    F326    F    0.43315   0.99718   0.18436   1.000
    F327    F    0.93316   0.99718   0.18436   1.000
    F328    F    0.35551   0.90109   0.15430   1.000
    F329    F    0.85552   0.90109   0.15430   1.000
    F330    F    0.12987   0.22960   0.30165   1.000
    F331    F    0.62988   0.22960   0.30165   1.000
    F332    F    0.09981   0.18435   0.18716   1.000
    F333    F    0.59982   0.18435   0.18716   1.000
    F334    F    0.02218   0.15426   0.25318   1.000
    F335    F    0.52219   0.15426   0.25318   1.000
    F336    F    0.29655   0.69831   0.92791   1.000
    F337    F    0.79656   0.69831   0.92791   1.000
    F338    F    0.26648   0.81278   0.99715   1.000
    F339    F    0.76649   0.81278   0.99715   1.000
    F340    F    0.18884   0.74679   0.90107   1.000
    F341    F    0.68885   0.74679   0.90107   1.000
    F342    F    0.46323   0.07208   0.77035   1.000
    F343    F    0.96324   0.07208   0.77035   1.000
    F344    F    0.43315   0.00282   0.81559   1.000
    F345    F    0.93316   0.00282   0.81559   1.000
    F346    F    0.35551   0.09891   0.84568   1.000
    F347    F    0.85552   0.09891   0.84568   1.000
loop_
    _geom_bond_atom_site_label_1
    _geom_bond_atom_site_label_2
    _geom_bond_distance
    _geom_bond_site_symmetry_2
    _ccdc_geom_bond_type
    F311   C174      1.35938      .   S
    F310   C173      1.35938      .   S
    F321   C220      1.35980      .   S
    F191   C219      1.35980      .   S
    C174   F309      1.36275      .   S
    C174   F313      1.35524      .   S
    C174   C281      1.56633      .   S
    C173   F308      1.36276      .   S
    C173   F312      1.35523      .   S
    C173   C280      1.56633      .   S
    C219   F189      1.36320      .   S
    C219   F322      1.35484      .   S
    C219   C274      1.56663      .   S
    C220   F190      1.36321      .   S
    C220   F323      1.35483      .   S
    C220   C275      1.56662      .   S
    C172   C170      1.40153      .   S
    C172   C164      1.40605      .   S
    C172   C281      1.54550      .   S
    C217   C215      1.40068      .   S
    C217   C209      1.40561      .   S
    C217   C274      1.54579      .   S
    C218   C216      1.40068      .   S
    C218   C210      1.40561      .   S
    C218   C275      1.54579      .   S
    C171   C169      1.40142      .   S
    C171   C163      1.40440      .   S
    C171   C280      1.54603      .   S
    H39    C170      1.08530      .   S
    H38    C169      1.08530      .   S
    H63    C216      1.08538      .   S
    H62    C215      1.08539  1_655   S
    H58    C209      1.08879      .   S
    H59    C210      1.08879      .   S
    H34    C163      1.08857      .   S
    H35    C164      1.08876      .   S
    C215   C208      1.39269  1_455   S
    C216   C207      1.39283      .   S
    C170   C162      1.39232      .   S
    C169   C161      1.39212      .   S
    C163   C165      1.39245      .   S
    C210   C212      1.39140      .   S
    C209   C211      1.39140      .   S
    C164   C166      1.39151      .   S
    C161   H32       1.08828      .   S
    C161   C167      1.40045      .   S
    C162   H33       1.08824      .   S
    C162   C168      1.40025      .   S
    C207   H56       1.08829      .   S
    C207   C214      1.40032      .   S
    C208   H57       1.08828      .   S
    C208   C213      1.40016  1_655   S
    C211   H60       1.08831      .   S
    C211   C213      1.40216      .   S
    C212   H61       1.08831      .   S
    C212   C214      1.40216      .   S
    C165   H36       1.08878      .   S
    C165   C167      1.40221      .   S
    C166   H37       1.08832      .   S
    C166   C168      1.40209      .   S
    F319   C192      1.35489      .   S
    F318   C91       1.35489      .   S
    F328   C233      1.35483      .   S
    F329   C234      1.35483      .   S
    F317   C192      1.35977      .   S
    F327   C234      1.35982      .   S
    F326   C233      1.35982      .   S
    F316   C91       1.35979      .   S
    F333   C243      1.35969      .   S
    F332   C242      1.35969      .   S
    F286   C112      1.35984      .   S
    F287   C113      1.35984      .   S
    C91    F314      1.36322      .   S
    C91    C283      1.56617      .   S
    C192   F315      1.36322      .   S
    C192   C282      1.56606  1_655   S
    C233   F324      1.36322      .   S
    C233   C272      1.56653  1_565   S
    C234   F325      1.36324      .   S
    C234   C273      1.56653  1_565   S
    H46    C183      1.08519      .   S
    H47    C88       1.08519      .   S
    H70    C229      1.08515      .   S
    H71    C230      1.08514      .   S
    H40    C175      1.08829      .   S
    H41    C176      1.08827      .   S
    H65    C222      1.08826      .   S
    H64    C221      1.08826      .   S
    F288   C112      1.35491      .   S
    F335   C243      1.35492      .   S
    F289   C113      1.35491      .   S
    F334   C242      1.35488      .   S
    C243   C283      1.56631      .   S
    C243   F331      1.36335      .   S
    C242   C282      1.56622      .   S
    C242   F330      1.36333      .   S
    C112   C272      1.56653      .   S
    C112   F284      1.36308      .   S
    C113   C273      1.56653      .   S
    C113   F285      1.36307      .   S
    C88    C176      1.39227      .   S
    C88    C90       1.40137      .   S
    C183   C175      1.39224      .   S
    C183   C89       1.40138      .   S
    C229   C221      1.39227      .   S
    C229   C231      1.40106      .   S
    C230   C222      1.39227      .   S
    C230   C232      1.40144      .   S
    C176   C182      1.40028      .   S
    C175   C181      1.40021      .   S
    C222   C228      1.40036      .   S
    C221   C227      1.40036      .   S
    C283   C90       1.54575      .   S
    C283   C240      1.54576      .   S
    C282   C89       1.54569      .   S
    C282   C241      1.54564  1_455   S
    C273   C232      1.54612  1_545   S
    C273   C111      1.54577      .   S
    C272   C231      1.54502  1_545   S
    C272   C110      1.54576      .   S
    C90    C178      1.40552      .   S
    C89    C177      1.40553      .   S
    C231   C223      1.40698      .   S
    C232   C224      1.40547      .   S
    H6     C108      1.08521      .   S
    H7     C109      1.07882  1_455   S
    H78    C238      1.08528      .   S
    H79    C239      1.08528      .   S
    C181   C179      1.40250      .   S
    C182   C180      1.40207      .   S
    C228   C226      1.40209      .   S
    C227   C225      1.40210      .   S
    C178   C180      1.39143      .   S
    C178   H42       1.08874      .   S
    C177   C179      1.39141      .   S
    C177   H43       1.08842  1_455   S
    C223   C225      1.39154      .   S
    C223   H66       1.08879      .   S
    C224   C226      1.39154      .   S
    C224   H67       1.08877      .   S
    C180   H45       1.08830      .   S
    C179   H44       1.08830      .   S
    C225   H68       1.08822      .   S
    C226   H69       1.08821      .   S
    C108   C110      1.40144      .   S
    C108   C101      1.39223      .   S
    C109   C111      1.40143      .   S
    C109   C100      1.39208  1_655   S
    C238   C240      1.40141      .   S
    C238   C235      1.39218      .   S
    C239   C241      1.40142      .   S
    C239   C236      1.39218      .   S
    C241   C117      1.40555      .   S
    C240   C116      1.40554      .   S
    C111   C103      1.40559      .   S
    C110   C102      1.40558      .   S
    H1     C101      1.08828      .   S
    H0     C100      1.08827      .   S
    H73    C236      1.08830      .   S
    H72    C235      1.08830      .   S
    C100   C107      1.40019  1_455   S
    C101   C106      1.40035      .   S
    C236   C237      1.40029      .   S
    C235   C120      1.40028      .   S
    C117   H74       1.08844  1_655   S
    C117   C119      1.39145      .   S
    C116   H75       1.08877      .   S
    C116   C118      1.38992      .   S
    C102   H2        1.08876      .   S
    C102   C104      1.39147      .   S
    C103   H3        1.08876      .   S
    C103   C105      1.39146      .   S
    C107   C105      1.40215      .   S
    C106   C104      1.40215      .   S
    C237   C119      1.40207      .   S
    C120   C118      1.40239      .   S
    C118   H76       1.08949      .   S
    C119   H77       1.08826      .   S
    C104   H4        1.08824      .   S
    C105   H5        1.08824      .   S
    H28    C151      1.08832      .   S
    H29    C152      1.08832      .   S
    H52    C197      1.08824      .   S
    H53    C198      1.08823      .   S
    C152   C154      1.40210      .   S
    C152   C150      1.39140      .   S
    C151   C153      1.40210      .   S
    C151   C149      1.39140      .   S
    C197   C199      1.40212      .   S
    C197   C195      1.39140      .   S
    C198   C200      1.40212      .   S
    C198   C196      1.39139      .   S
    C153   C148      1.40036      .   S
    C154   C147      1.40020  1_655   S
    C199   C193      1.39905      .   S
    C200   C194      1.39905      .   S
    H26    C149      1.08876      .   S
    H27    C150      1.08876      .   S
    H50    C196      1.08844  1_455   S
    H51    C195      1.08876      .   S
    C149   C157      1.40556      .   S
    C150   C158      1.40557      .   S
    C195   C203      1.40558      .   S
    C196   C204      1.40558      .   S
    C193   H48       1.08794      .   S
    C193   C201      1.39385      .   S
    C194   H49       1.08794      .   S
    C194   C202      1.39385      .   S
    C147   H24       1.08830      .   S
    C147   C156      1.39212  1_455   S
    C148   H25       1.08830      .   S
    C148   C155      1.39227      .   S
    H21    C138      1.08831      .   S
    H20    C137      1.08830      .   S
    H96    C262      1.08839      .   S
    H97    C263      1.08771      .   S
    H94    C260      1.08877      .   S
    H95    C261      1.08877      .   S
    H18    C136      1.08855      .   S
    H19    C135      1.08839  1_655   S
    C157   C155      1.40143      .   S
    C157   C278      1.54588  1_565   S
    C158   C156      1.40143      .   S
    C158   C279      1.54588  1_565   S
    C203   C201      1.40140      .   S
    C203   C277      1.54588      .   S
    C204   C202      1.40141      .   S
    C204   C276      1.54570  1_655   S
    C155   H30       1.08528      .   S
    C156   H31       1.07899  1_655   S
    C201   H54       1.08523      .   S
    C202   H55       1.08523      .   S
    C263   C261      1.39190      .   S
    C263   C265      1.40223      .   S
    C138   C136      1.39157      .   S
    C138   C140      1.40206      .   S
    C137   C135      1.39146      .   S
    C137   C139      1.40206      .   S
    C262   C260      1.39139      .   S
    C262   C264      1.40208      .   S
    C136   C144      1.40557      .   S
    C260   C268      1.40562      .   S
    C261   C269      1.40565      .   S
    C135   C143      1.40555      .   S
    C139   C133      1.40031      .   S
    C140   C134      1.40031      .   S
    C264   C258      1.40039      .   S
    C265   C259      1.40041      .   S
    F184   C206      1.36313      .   S
    F320   C205      1.36312      .   S
    F303   C160      1.36319      .   S
    F302   C159      1.36319      .   S
    C268   C278      1.54594      .   S
    C268   C266      1.40140      .   S
    C269   C279      1.54592      .   S
    C269   C267      1.40139      .   S
    C143   C276      1.54577      .   S
    C143   C141      1.40136      .   S
    C144   C277      1.54576      .   S
    C144   C142      1.40136      .   S
    C278   C159      1.56669  1_545   S
    C278   C270      1.56639      .   S
    C279   C160      1.56669  1_545   S
    C279   C271      1.56640      .   S
    C277   C206      1.56628      .   S
    C277   C145      1.56625      .   S
    C276   C205      1.56629      .   S
    C276   C146      1.56602  1_455   S
    C134   C142      1.39226      .   S
    C134   H17       1.08828      .   S
    C133   C141      1.39228      .   S
    C133   H16       1.08828      .   S
    C258   C266      1.39231      .   S
    C258   H92       1.08786      .   S
    C259   C267      1.39229      .   S
    C259   H93       1.08787      .   S
    C141   H22       1.08521      .   S
    C142   H23       1.08521      .   S
    C267   H99       1.08511      .   S
    C266   H98       1.08513      .   S
    C159   F306      1.35494      .   S
    C159   F304      1.35980      .   S
    C160   F307      1.35408      .   S
    C160   F305      1.35980      .   S
    C205   F187      1.35491      .   S
    C205   F185      1.35827      .   S
    C206   F188      1.35491      .   S
    C206   F186      1.35827      .   S
    F342   C270      1.36320      .   S
    F343   C271      1.36319      .   S
    F296   C145      1.36319      .   S
    F297   C146      1.36321      .   S
    C271   F345      1.35984      .   S
    C271   F347      1.35478      .   S
    C270   F344      1.35985      .   S
    C270   F346      1.35478      .   S
    C145   F298      1.35978      .   S
    C145   F300      1.35482      .   S
    C146   F299      1.35978      .   S
    C146   F301      1.35482      .   S
    C125   C123      1.40209      .   S
    C125   C114      1.40030      .   S
    C126   C124      1.40207      .   S
    C126   C115      1.40026      .   S
    C250   C248      1.40215      .   S
    C250   C245      1.40015  1_455   S
    C251   C249      1.40211      .   S
    C251   C244      1.40033      .   S
    H12    C123      1.08826      .   S
    H13    C124      1.08828      .   S
    H85    C249      1.08828      .   S
    H84    C248      1.08830      .   S
    H8     C114      1.08859      .   S
    H9     C115      1.08827      .   S
    H81    C245      1.08876      .   S
    H80    C244      1.08825      .   S
    C124   C122      1.39154      .   S
    C123   C121      1.39154      .   S
    C249   C247      1.39122      .   S
    C248   C246      1.39143      .   S
    C114   C127      1.39235      .   S
    C115   C128      1.39237      .   S
    C245   C252      1.39196  1_655   S
    C244   C253      1.39230      .   S
    F341   C257      1.35488      .   S
    F340   C256      1.35488      .   S
    F294   C131      1.35482      .   S
    F295   C132      1.35481      .   S
    C247   H83       1.08340      .   S
    C247   C255      1.40554      .   S
    C122   H11       1.08873      .   S
    C122   C130      1.40558      .   S
    C121   H10       1.08875      .   S
    C121   C129      1.40562      .   S
    C246   H82       1.08876      .   S
    C246   C254      1.40559      .   S
    C127   H14       1.08411      .   S
    C127   C129      1.40140      .   S
    C128   H15       1.08514      .   S
    C128   C130      1.40139      .   S
    C252   H86       1.08515  1_455   S
    C252   C254      1.40164      .   S
    C253   H87       1.08521      .   S
    C253   C255      1.40140      .   S
    F336   C256      1.36313      .   S
    F337   C257      1.36313      .   S
    F290   C131      1.36324      .   S
    F291   C132      1.36323      .   S
    C129   C274      1.54613  1_556   S
    C130   C275      1.54615  1_556   S
    C254   C280      1.54584  1_556   S
    C255   C281      1.54583  1_556   S
    C256   F338      1.35987      .   S
    C256   C280      1.56685  1_556   S
    C257   F339      1.35985      .   S
    C257   C281      1.56685  1_556   S
    C131   F292      1.35991      .   S
    C131   C274      1.56643  1_556   S
    C132   F293      1.35990      .   S
    C132   C275      1.56645  1_556   S
