# CIF file generated by openbabel 2.4.90, see http://openbabel.sf.net
data_I
_chemical_name_common 'VESTA_phase_1'
_cell_length_a 17.739
_cell_length_b 17.719
_cell_length_c 17.713
_cell_angle_alpha 96.741
_cell_angle_beta 96.796
_cell_angle_gamma 96.639
_space_group_name_H-M_alt 'P 1'
_space_group_name_Hall 'P 1'
loop_
    _symmetry_equiv_pos_as_xyz
    x,y,z
loop_
    _atom_site_label
    _atom_site_type_symbol
    _atom_site_fract_x
    _atom_site_fract_y
    _atom_site_fract_z
    _atom_site_occupancy
    Cu0     Cu   0.30527   0.90409   0.90378   1.000
    Cu1     Cu   0.90483   0.30495   0.90380   1.000
    Cu2     Cu   0.90454   0.90442   0.30435   1.000
    Cu3     Cu   0.85582   0.17115   0.85430   1.000
    Cu4     Cu   0.85520   0.85496   0.17040   1.000
    Cu5     Cu   0.17183   0.85466   0.85380   1.000
    H6      H    0.21166   0.47817   0.81860   1.000
    H7      H    0.18088   0.61114   0.81811   1.000
    H8      H    0.43180   0.56535   0.94886   1.000
    H9      H    0.40205   0.69821   0.94346   1.000
    H10     H    0.22538   0.38695   0.89151   1.000
    H11     H    0.14270   0.30546   0.89157   1.000
    H12     H    0.81958   0.21079   0.47748   1.000
    H13     H    0.81877   0.18000   0.61047   1.000
    H14     H    0.94944   0.43095   0.56535   1.000
    H15     H    0.94377   0.40119   0.69820   1.000
    H16     H    0.89323   0.22464   0.38655   1.000
    H17     H    0.89341   0.14207   0.30489   1.000
    H18     H    0.47877   0.82253   0.20761   1.000
    H19     H    0.61159   0.82221   0.17702   1.000
    H20     H    0.56594   0.94998   0.42939   1.000
    H21     H    0.69867   0.94472   0.39977   1.000
    H22     H    0.38675   0.89381   0.22308   1.000
    H23     H    0.30465   0.89014   0.14049   1.000
    H24     H    0.47926   0.20873   0.82170   1.000
    H25     H    0.61216   0.17817   0.82107   1.000
    H26     H    0.56634   0.43017   0.94958   1.000
    H27     H    0.69909   0.40057   0.94404   1.000
    H28     H    0.38758   0.22386   0.89340   1.000
    H29     H    0.30556   0.14136   0.89102   1.000
    H30     H    0.21211   0.81738   0.47765   1.000
    H31     H    0.18166   0.81734   0.61071   1.000
    H32     H    0.43167   0.94864   0.56459   1.000
    H33     H    0.40230   0.94370   0.69757   1.000
    H34     H    0.22487   0.89007   0.38609   1.000
    H35     H    0.14206   0.89156   0.30450   1.000
    H36     H    0.82158   0.47851   0.20918   1.000
    H37     H    0.82041   0.61152   0.17864   1.000
    H38     H    0.95003   0.56600   0.43041   1.000
    H39     H    0.94407   0.69886   0.40081   1.000
    H40     H    0.89486   0.38731   0.22393   1.000
    H41     H    0.89335   0.30534   0.14123   1.000
    H42     H    0.46202   0.46009   0.87929   1.000
    H43     H    0.06517   0.06501   0.87046   1.000
    H44     H    0.87953   0.46129   0.46019   1.000
    H45     H    0.87305   0.06475   0.06420   1.000
    H46     H    0.46208   0.87929   0.45931   1.000
    H47     H    0.06426   0.87062   0.06381   1.000
    C48     C    0.28950   0.66296   0.88075   1.000
    C49     C    0.25314   0.52601   0.84761   1.000
    C50     C    0.23582   0.60041   0.84633   1.000
    C51     C    0.32393   0.51164   0.88422   1.000
    C52     C    0.37721   0.57492   0.91870   1.000
    C53     C    0.36061   0.64949   0.91663   1.000
    C54     C    0.27109   0.74275   0.87957   1.000
    C55     C    0.01713   0.20612   0.87995   1.000
    C56     C    0.34164   0.43228   0.88666   1.000
    C57     C    0.28313   0.37261   0.88935   1.000
    C58     C    0.09741   0.18777   0.88169   1.000
    C59     C    0.15769   0.24750   0.88819   1.000
    C60     C    0.88123   0.28863   0.66258   1.000
    C61     C    0.84838   0.25227   0.52550   1.000
    C62     C    0.84698   0.23494   0.59988   1.000
    C63     C    0.88504   0.32306   0.51138   1.000
    C64     C    0.91930   0.37638   0.57481   1.000
    C65     C    0.91708   0.35976   0.64934   1.000
    C66     C    0.88005   0.27020   0.74234   1.000
    C67     C    0.88193   0.01655   0.20540   1.000
    C68     C    0.88762   0.34089   0.43211   1.000
    C69     C    0.89085   0.28246   0.37236   1.000
    C70     C    0.88395   0.09688   0.18712   1.000
    C71     C    0.89029   0.15717   0.24699   1.000
    C72     C    0.66341   0.88316   0.28659   1.000
    C73     C    0.52658   0.85089   0.24954   1.000
    C74     C    0.60091   0.84973   0.23230   1.000
    C75     C    0.51228   0.88640   0.32087   1.000
    C76     C    0.57550   0.92043   0.37450   1.000
    C77     C    0.64997   0.91844   0.35790   1.000
    C78     C    0.74317   0.88120   0.26873   1.000
    C79     C    0.20524   0.87995   0.01521   1.000
    C80     C    0.43309   0.88770   0.33904   1.000
    C81     C    0.37292   0.89038   0.28087   1.000
    C82     C    0.18704   0.88128   0.09558   1.000
    C83     C    0.24695   0.88737   0.15500   1.000
    C84     C    0.66389   0.28754   0.88228   1.000
    C85     C    0.52707   0.25057   0.85010   1.000
    C86     C    0.60142   0.23336   0.84876   1.000
    C87     C    0.51272   0.32177   0.88580   1.000
    C88     C    0.57592   0.37535   0.91990   1.000
    C89     C    0.65041   0.35885   0.91770   1.000
    C90     C    0.74366   0.26963   0.88042   1.000
    C91     C    0.20604   0.01615   0.87987   1.000
    C92     C    0.43350   0.33985   0.88760   1.000
    C93     C    0.37356   0.28167   0.89037   1.000
    C94     C    0.18792   0.09659   0.88152   1.000
    C95     C    0.24781   0.15670   0.88797   1.000
    C96     C    0.28999   0.88058   0.66240   1.000
    C97     C    0.25354   0.84669   0.52546   1.000
    C98     C    0.23641   0.84569   0.59993   1.000
    C99     C    0.32404   0.88353   0.51090   1.000
    C100    C    0.37728   0.91838   0.57424   1.000
    C101    C    0.36088   0.91655   0.64889   1.000
    C102    C    0.27160   0.87983   0.74231   1.000
    C103    C    0.01645   0.88010   0.20510   1.000
    C104    C    0.34145   0.88598   0.43150   1.000
    C105    C    0.28267   0.88841   0.37180   1.000
    C106    C    0.09665   0.88165   0.18670   1.000
    C107    C    0.15698   0.88797   0.24653   1.000
    C108    C    0.88203   0.66341   0.28785   1.000
    C109    C    0.85000   0.52645   0.25095   1.000
    C110    C    0.84836   0.60083   0.23376   1.000
    C111    C    0.88620   0.51224   0.32200   1.000
    C112    C    0.92014   0.57554   0.37565   1.000
    C113    C    0.91773   0.65007   0.35915   1.000
    C114    C    0.88024   0.74315   0.26969   1.000
    C115    C    0.88218   0.20570   0.01584   1.000
    C116    C    0.88838   0.43298   0.33997   1.000
    C117    C    0.89172   0.37314   0.28167   1.000
    C118    C    0.88400   0.18759   0.09623   1.000
    C119    C    0.89031   0.24751   0.15640   1.000
    C120    C    0.41669   0.41504   0.88531   1.000
    C121    C    0.29750   0.29646   0.89039   1.000
    C122    C    0.23410   0.23333   0.88956   1.000
    C123    C    0.11199   0.11161   0.87673   1.000
    C124    C    0.88598   0.41604   0.41508   1.000
    C125    C    0.89209   0.29702   0.29628   1.000
    C126    C    0.89170   0.23368   0.23303   1.000
    C127    C    0.87926   0.11155   0.11101   1.000
    C128    C    0.41652   0.88514   0.41425   1.000
    C129    C    0.29686   0.88985   0.29564   1.000
    C130    C    0.23334   0.88909   0.23245   1.000
    C131    C    0.11112   0.87669   0.11050   1.000
    O132    O    0.32597   0.79716   0.90270   1.000
    O133    O    0.96333   0.15095   0.85668   1.000
    O134    O    0.00893   0.27570   0.90222   1.000
    O135    O    0.20185   0.75087   0.85570   1.000
    O136    O    0.90323   0.32514   0.79683   1.000
    O137    O    0.85947   0.96266   0.15003   1.000
    O138    O    0.90306   0.00843   0.27528   1.000
    O139    O    0.85637   0.20090   0.75036   1.000
    O140    O    0.79736   0.90338   0.32416   1.000
    O141    O    0.15016   0.85734   0.96106   1.000
    O142    O    0.27488   0.90174   0.00730   1.000
    O143    O    0.75145   0.85762   0.19941   1.000
    O144    O    0.79776   0.32494   0.90300   1.000
    O145    O    0.15097   0.96229   0.85654   1.000
    O146    O    0.27558   0.00794   0.90215   1.000
    O147    O    0.75210   0.20043   0.85652   1.000
    O148    O    0.32637   0.90321   0.79690   1.000
    O149    O    0.96252   0.85665   0.15000   1.000
    O150    O    0.00847   0.90268   0.27469   1.000
    O151    O    0.20237   0.85607   0.75027   1.000
    O152    O    0.90342   0.79752   0.32475   1.000
    O153    O    0.85962   0.15036   0.96193   1.000
    O154    O    0.90342   0.27546   0.00767   1.000
    O155    O    0.85600   0.75124   0.20046   1.000
loop_
    _geom_bond_atom_site_label_1
    _geom_bond_atom_site_label_2
    _geom_bond_distance
    _geom_bond_site_symmetry_2
    _ccdc_geom_bond_type
    O142   C79       1.28000      .   S
    O142   Cu0       1.97517  1_554   S
    O154   C115      1.27983      .   S
    O154   Cu1       1.97287  1_554   S
    C79    C82       1.49469      .   S
    C79    O141      1.27774  1_554   S
    C115   C118      1.49351      .   S
    C115   O153      1.27775  1_554   S
    H47    C131      1.08734      .   S
    H45    C127      1.08768      .   S
    C82    C131      1.39783      .   S
    C82    C83       1.38958      .   S
    C118   C127      1.39740      .   S
    C118   C119      1.39807      .   S
    C131   C106      1.39815      .   S
    C127   C70       1.39736      .   S
    H23    C83       1.08151      .   S
    H41    C119      1.08634      .   S
    O149   Cu4       1.97683      .   S
    O149   C103      1.27766  1_655   S
    O137   Cu4       1.97794      .   S
    O137   C67       1.27755  1_565   S
    C83    C130      1.41827      .   S
    C119   C126      1.40522      .   S
    Cu4    O143      1.97278      .   S
    Cu4    O155      1.97369      .   S
    H19    C74       1.08885      .   S
    H37    C110      1.08885      .   S
    C106   C103      1.49445      .   S
    C106   C107      1.39893      .   S
    C70    C67       1.49370      .   S
    C70    C71       1.39877      .   S
    O143   C78       1.28070      .   S
    O155   C114      1.28062      .   S
    C103   O150      1.27994      .   S
    C67    O138      1.27978      .   S
    H18    C73       1.09003      .   S
    H36    C109      1.09002      .   S
    H22    C81       1.08733      .   S
    H40    C117      1.08748      .   S
    C74    C73       1.38997      .   S
    C74    C72       1.40251      .   S
    C130   C107      1.40444      .   S
    C130   C129      1.48896      .   S
    C126   C71       1.40431      .   S
    C126   C125      1.48853      .   S
    C110   C109      1.38971      .   S
    C110   C108      1.40224      .   S
    C107   H35       1.08688      .   S
    C71    H17       1.08672      .   S
    C73    C75       1.40809      .   S
    C109   C111      1.40718      .   S
    C78    C72       1.48915      .   S
    C78    O140      1.28112      .   S
    C114   C108      1.48840      .   S
    C114   O152      1.28114      .   S
    O150   Cu2       1.97850  1_455   S
    O138   Cu2       1.97305  1_545   S
    C81    C129      1.40359      .   S
    C81    C80       1.40221      .   S
    C117   C125      1.40360      .   S
    C117   C116      1.40219      .   S
    C72    C77       1.40126      .   S
    C108   C113      1.40262      .   S
    C129   C105      1.40383      .   S
    C125   C69       1.40370      .   S
    Cu2    O140      1.97205      .   S
    Cu2    O152      1.96795      .   S
    C75    C80       1.48002      .   S
    C75    C76       1.40741      .   S
    C111   C116      1.47974      .   S
    C111   C112      1.40782      .   S
    C80    C128      1.40249      .   S
    C116   C124      1.40222      .   S
    C77    C76       1.39036      .   S
    C77    H21       1.08962      .   S
    C113   C112      1.38983      .   S
    C113   H39       1.08885      .   S
    C105   H34       1.08752      .   S
    C105   C104      1.40260      .   S
    C69    H16       1.08741      .   S
    C69    C68       1.40221      .   S
    C76    H20       1.09004      .   S
    C112   H38       1.09004      .   S
    C128   C104      1.40242      .   S
    C128   H46       1.08952      .   S
    C124   C68       1.40221      .   S
    C124   H44       1.08944      .   S
    C104   C99       1.47963      .   S
    C68    C63       1.47969      .   S
    H12    C61       1.09003      .   S
    H30    C97       1.09005      .   S
    C99    C97       1.40840      .   S
    C99    C100      1.40850      .   S
    C63    C61       1.40785      .   S
    C63    C64       1.40743      .   S
    C97    C98       1.38988      .   S
    C61    C62       1.38987      .   S
    H32    C100      1.09011      .   S
    H14    C64       1.09013      .   S
    C100   C101      1.39033      .   S
    C64    C65       1.38992      .   S
    C62    H13       1.08885      .   S
    C62    C60       1.40227      .   S
    C98    H31       1.08880      .   S
    C98    C96       1.40167      .   S
    C101   C96       1.40235      .   S
    C101   H33       1.08885      .   S
    C65    C60       1.40270      .   S
    C65    H15       1.08877      .   S
    C96    C102      1.49091      .   S
    C60    C66       1.48886      .   S
    C102   O151      1.28086      .   S
    C102   O148      1.28100      .   S
    C66    O139      1.28078      .   S
    C66    O136      1.28110      .   S
    O151   Cu5       1.97481      .   S
    O139   Cu3       1.97448      .   S
    O136   Cu1       1.96663      .   S
    O148   Cu0       1.97137      .   S
    H7     C50       1.08884      .   S
    H6     C49       1.09000      .   S
    H25    C86       1.08885      .   S
    H24    C85       1.08997      .   S
    C50    C49       1.38989      .   S
    C50    C48       1.40243      .   S
    C49    C51       1.40797      .   S
    C86    C85       1.38995      .   S
    C86    C84       1.40234      .   S
    C85    C87       1.40754      .   S
    Cu5    O135      1.97578      .   S
    Cu5    O145      1.98045      .   S
    Cu5    O141      1.97875      .   S
    Cu3    O147      1.97218      .   S
    Cu3    O133      1.97711      .   S
    Cu3    O153      1.97861      .   S
    O135   C54       1.28075      .   S
    O147   C90       1.28083      .   S
    O145   C91       1.27754  1_565   S
    O133   C55       1.27788  1_655   S
    H43    C123      1.08730      .   S
    C123   C94       1.39761      .   S
    C123   C58       1.39786      .   S
    H42    C120      1.08946      .   S
    C54    C48       1.48928      .   S
    C54    O132      1.28099      .   S
    C91    C94       1.49469      .   S
    C91    O146      1.28002      .   S
    C55    C58       1.49448      .   S
    C55    O134      1.27970      .   S
    C90    C84       1.48888      .   S
    C90    O144      1.28095      .   S
    C48    C53       1.40270      .   S
    C94    C95       1.39900      .   S
    C58    C59       1.39900      .   S
    C84    C89       1.40242      .   S
    C51    C56       1.48019      .   S
    C51    C52       1.40745      .   S
    C120   C56       1.40234      .   S
    C120   C92       1.40257      .   S
    C87    C92       1.48011      .   S
    C87    C88       1.40787      .   S
    C56    C57       1.40256      .   S
    C92    C93       1.40236      .   S
    C95    C122      1.40457      .   S
    C95    H29       1.08671      .   S
    C59    C122      1.40468      .   S
    C59    H11       1.08685      .   S
    C57    C121      1.40375      .   S
    C57    H10       1.08743      .   S
    C122   C121      1.48919      .   S
    C93    C121      1.40378      .   S
    C93    H28       1.08743      .   S
    O146   Cu0       1.97404  1_545   S
    O134   Cu1       1.97726  1_455   S
    O132   Cu0       1.96966      .   S
    O144   Cu1       1.97066      .   S
    C53    C52       1.39013      .   S
    C53    H9        1.08886      .   S
    C89    C88       1.38991      .   S
    C89    H27       1.08898      .   S
    C52    H8        1.09036      .   S
    C88    H26       1.09004      .   S
    Cu0    Cu5       2.44893      .   S
    Cu1    Cu3       2.44964      .   S
    Cu2    Cu4       2.45082      .   S
