# CIF file generated by openbabel 2.4.90, see http://openbabel.sf.net
data_I
_chemical_name_common ''
_cell_length_a 10.118
_cell_length_b 11.5265
_cell_length_c 14.927
_cell_angle_alpha 91.151
_cell_angle_beta 90.01
_cell_angle_gamma 90.045
_space_group_name_H-M_alt 'P 1'
_space_group_name_Hall 'P 1'
loop_
    _symmetry_equiv_pos_as_xyz
    x,y,z
loop_
    _atom_site_label
    _atom_site_type_symbol
    _atom_site_fract_x
    _atom_site_fract_y
    _atom_site_fract_z
    _atom_site_occupancy
    Zr0     Zr   0.07195   0.75489   0.13173   1.000
    Zr1     Zr   0.88241   0.74069   0.30879   1.000
    Zr2     Zr   0.57196   0.74512   0.36834   1.000
    Zr3     Zr   0.38242   0.75936   0.19121   1.000
    Zr4     Zr   0.92802   0.24509   0.86826   1.000
    Zr5     Zr   0.11756   0.25930   0.69121   1.000
    Zr6     Zr   0.42801   0.25486   0.63165   1.000
    Zr7     Zr   0.61755   0.24063   0.80880   1.000
    Zr8     Zr   1.00000   0.49999   1.00000   1.000
    Zr9     Zr   0.49999   0.00000   0.50000   1.000
    Zr10    Zr   0.00000   0.00000   1.00000   1.000
    Zr11    Zr   0.49998   0.49999   0.50000   1.000
    N12     N    0.77181   0.57107   0.44230   1.000
    O13     O    0.69189   0.62284   0.42240   1.000
    O14     O    0.67389   0.56156   0.45531   1.000
    O15     O    0.82426   0.62352   0.39887   1.000
    N16     N    0.13587   0.04894   0.81985   1.000
    O17     O    0.07191   0.12312   0.82910   1.000
    O18     O    0.11930   0.12668   0.78484   1.000
    O19     O    0.09550   0.01941   0.88040   1.000
    N20     N    0.16052   0.82433   0.32752   1.000
    O21     O    0.06311   0.80114   0.33201   1.000
    O22     O    0.14570   0.80105   0.25827   1.000
    O23     O    0.22332   0.80217   0.27313   1.000
    N24     N    0.10084   0.25788   0.03074   1.000
    O25     O    0.07821   0.16626   0.02436   1.000
    O26     O    0.03936   0.26882   0.97685   1.000
    O27     O    0.05735   0.33255   0.00978   1.000
    N28     N    0.33960   0.32418   0.82752   1.000
    O29     O    0.35437   0.30096   0.75824   1.000
    O30     O    0.27676   0.30206   0.77313   1.000
    O31     O    0.43697   0.30103   0.83201   1.000
    N32     N    0.83946   0.17567   0.67248   1.000
    O33     O    0.85427   0.19895   0.74173   1.000
    O34     O    0.77665   0.19783   0.72686   1.000
    O35     O    0.93686   0.19885   0.66799   1.000
    N36     N    0.72809   0.07067   0.94205   1.000
    O37     O    0.80804   0.12259   0.92221   1.000
    O38     O    0.82603   0.06131   0.95515   1.000
    O39     O    0.67565   0.12325   0.89871   1.000
    N40     N    0.86410   0.95105   0.18015   1.000
    O41     O    0.92806   0.87686   0.17089   1.000
    O42     O    0.88067   0.87331   0.21516   1.000
    O43     O    0.90447   0.98058   0.11960   1.000
    N44     N    0.89913   0.74211   0.96925   1.000
    O45     O    0.96061   0.73117   0.02314   1.000
    O46     O    0.94262   0.66744   0.99021   1.000
    O47     O    0.92176   0.83373   0.97563   1.000
    N48     N    0.66037   0.67581   0.17248   1.000
    O49     O    0.56300   0.69896   0.16799   1.000
    O50     O    0.64560   0.69903   0.24176   1.000
    O51     O    0.72322   0.69792   0.22687   1.000
    N52     N    0.71798   0.42265   0.94762   1.000
    O53     O    0.80729   0.45635   0.97366   1.000
    O54     O    0.77885   0.35987   0.91264   1.000
    O55     O    0.70123   0.35876   0.89778   1.000
    N56     N    0.02511   0.47979   0.79285   1.000
    O57     O    0.01272   0.50001   0.86191   1.000
    O58     O    0.04726   0.39722   0.76562   1.000
    O59     O    0.99987   0.39367   0.80988   1.000
    N60     N    0.47531   0.97983   0.29288   1.000
    O61     O    0.48752   0.00004   0.36195   1.000
    O62     O    0.45302   0.89726   0.26564   1.000
    O63     O    0.50040   0.89370   0.30992   1.000
    N64     N    0.21787   0.07708   0.55240   1.000
    O65     O    0.30722   0.04349   0.52635   1.000
    O66     O    0.27875   0.13994   0.58734   1.000
    O67     O    0.20114   0.14105   0.60223   1.000
    N68     N    0.39893   0.75771   0.53065   1.000
    O69     O    0.46048   0.76873   0.47682   1.000
    O70     O    0.44249   0.83245   0.50973   1.000
    O71     O    0.42165   0.66613   0.52433   1.000
    N72     N    0.36398   0.54890   0.31982   1.000
    O73     O    0.42797   0.62312   0.32911   1.000
    O74     O    0.38059   0.62668   0.28483   1.000
    O75     O    0.40440   0.51938   0.38037   1.000
    N76     N    0.27188   0.92932   0.05795   1.000
    O77     O    0.32432   0.87674   0.10128   1.000
    O78     O    0.19193   0.87740   0.07778   1.000
    O79     O    0.17394   0.93868   0.04485   1.000
    N80     N    0.60104   0.24228   0.46934   1.000
    O81     O    0.53949   0.23126   0.52317   1.000
    O82     O    0.55748   0.16755   0.49026   1.000
    O83     O    0.57832   0.33386   0.47566   1.000
    N84     N    0.78210   0.92292   0.44759   1.000
    O85     O    0.69276   0.95650   0.47364   1.000
    O86     O    0.72122   0.86004   0.41265   1.000
    O87     O    0.79883   0.85893   0.39777   1.000
    N88     N    0.97486   0.52020   0.20714   1.000
    O89     O    0.98727   0.49998   0.13809   1.000
    O90     O    0.95272   0.60277   0.23438   1.000
    O91     O    0.00010   0.60632   0.19012   1.000
    N92     N    0.28199   0.57733   0.05238   1.000
    O93     O    0.19269   0.54363   0.02634   1.000
    O94     O    0.22112   0.64011   0.08736   1.000
    O95     O    0.29874   0.64123   0.10222   1.000
    N96     N    0.22816   0.42891   0.55769   1.000
    O97     O    0.17571   0.37646   0.60113   1.000
    O98     O    0.30808   0.37714   0.57759   1.000
    O99     O    0.32608   0.43842   0.54468   1.000
    N100    N    0.52466   0.02016   0.70711   1.000
    O101    O    0.54695   0.10273   0.73436   1.000
    O102    O    0.49957   0.10628   0.69007   1.000
    O103    O    0.51245   0.99995   0.63805   1.000
    N104    N    0.63599   0.45109   0.68018   1.000
    O105    O    0.57200   0.37687   0.67089   1.000
    O106    O    0.61938   0.37331   0.71517   1.000
    O107    O    0.59557   0.48061   0.61963   1.000
loop_
    _geom_bond_atom_site_label_1
    _geom_bond_atom_site_label_2
    _geom_bond_distance
    _geom_bond_site_symmetry_2
    _ccdc_geom_bond_type
    N12    O13       1.05176      .   S
    Zr2    O13       2.03916      .   S
    N12    O14       1.01591      .   S
    Zr11   O14       2.01547      .   S
    N12    O15       1.04067      .   S
    Zr1    O15       2.01240      .   S
    N16    O17       1.07946      .   S
    Zr4    O17       2.09957  1_655   S
    N16    O18       1.05976      .   S
    Zr5    O18       2.09200      .   S
    N16    O19       1.05447      .   S
    Zr10   O19       2.04625      .   S
    N20    O21       1.02347      .   S
    Zr1    O21       1.98409  1_655   S
    N20    O22       1.07323      .   S
    Zr0    O22       2.08945      .   S
    N20    O23       1.05838      .   S
    Zr3    O23       2.07561      .   S
    N24    O25       1.08275      .   S
    Zr10   O25       2.09778  1_556   S
    N24    O26       1.02668  1_554   S
    Zr4    O26       1.98801  1_655   S
    N24    O27       1.02153      .   S
    Zr8    O27       2.02393  1_656   S
    N28    O29       1.07350      .   S
    Zr6    O29       2.09013      .   S
    N28    O30       1.05817      .   S
    Zr5    O30       2.07522      .   S
    N28    O31       1.02338      .   S
    Zr7    O31       1.98390      .   S
    N32    O33       1.07322      .   S
    Zr4    O33       2.08942      .   S
    N32    O34       1.05840      .   S
    Zr7    O34       2.07565      .   S
    N32    O35       1.02347      .   S
    Zr5    O35       1.98406  1_455   S
    N36    O37       1.05188      .   S
    Zr4    O37       2.03954      .   S
    N36    O38       1.01631      .   S
    Zr10   O38       2.01654  1_455   S
    N36    O39       1.04079      .   S
    Zr7    O39       2.01287      .   S
    N40    O41       1.07946      .   S
    Zr0    O41       2.09958  1_455   S
    N40    O42       1.05977      .   S
    Zr1    O42       2.09202      .   S
    N40    O43       1.05452      .   S
    Zr10   O43       2.04638  1_446   S
    N44    O45       1.02669  1_556   S
    Zr0    O45       1.98803  1_455   S
    N44    O46       1.02158      .   S
    Zr8    O46       2.02401      .   S
    N44    O47       1.08281      .   S
    Zr10   O47       2.09797  1_445   S
    N48    O49       1.02339      .   S
    Zr3    O49       1.98391      .   S
    N48    O50       1.07348      .   S
    Zr2    O50       2.09009      .   S
    N48    O51       1.05817      .   S
    Zr1    O51       2.07523      .   S
    N52    O53       1.05441      .   S
    Zr8    O53       2.04932      .   S
    N52    O54       1.07757      .   S
    Zr4    O54       2.10612      .   S
    N52    O55       1.04996      .   S
    Zr7    O55       2.06404      .   S
    N56    O57       1.05970      .   S
    Zr8    O57       2.06533  1_655   S
    N56    O58       1.05178      .   S
    Zr5    O58       2.04893      .   S
    N56    O59       1.06071  1_455   S
    Zr4    O59       2.06853      .   S
    N60    O61       1.05957  1_565   S
    Zr9    O61       2.06452      .   S
    N60    O62       1.05175      .   S
    Zr3    O62       2.04897      .   S
    N60    O63       1.06079      .   S
    Zr2    O63       2.06870      .   S
    N64    O65       1.05491      .   S
    Zr9    O65       2.05044      .   S
    N64    O66       1.07730      .   S
    Zr6    O66       2.10570      .   S
    N64    O67       1.05067      .   S
    Zr5    O67       2.06546      .   S
    N68    O69       1.02662      .   S
    Zr2    O69       1.98787      .   S
    N68    O70       1.02185      .   S
    Zr9    O70       2.02463  1_545   S
    N68    O71       1.08284      .   S
    Zr11   O71       2.09798      .   S
    N72    O73       1.07921      .   S
    Zr2    O73       2.09918      .   S
    N72    O74       1.05996      .   S
    Zr3    O74       2.09239      .   S
    N72    O75       1.05469      .   S
    Zr11   O75       2.04686      .   S
    N76    O77       1.04080      .   S
    Zr3    O77       2.01289      .   S
    N76    O78       1.05188      .   S
    Zr0    O78       2.03954      .   S
    N76    O79       1.01624      .   S
    Zr10   O79       2.01638  1_546   S
    N80    O81       1.02663      .   S
    Zr6    O81       1.98788      .   S
    N80    O82       1.02181      .   S
    Zr9    O82       2.02450      .   S
    N80    O83       1.08283      .   S
    Zr11   O83       2.09797      .   S
    N84    O85       1.05491      .   S
    Zr9    O85       2.05043  1_545   S
    N84    O86       1.07732      .   S
    Zr2    O86       2.10573      .   S
    N84    O87       1.05067      .   S
    Zr1    O87       2.06546      .   S
    N88    O89       1.05970      .   S
    Zr8    O89       2.06533  1_556   S
    N88    O90       1.05177      .   S
    Zr1    O90       2.04894      .   S
    N88    O91       1.06071  1_655   S
    Zr0    O91       2.06853      .   S
    N92    O93       1.05436      .   S
    Zr8    O93       2.04913  1_656   S
    N92    O94       1.07756      .   S
    Zr0    O94       2.10611      .   S
    N92    O95       1.04997      .   S
    Zr3    O95       2.06405      .   S
    N96    O97       1.04067      .   S
    Zr5    O97       2.01241      .   S
    N96    O98       1.05175      .   S
    Zr6    O98       2.03913      .   S
    N96    O99       1.01592      .   S
    Zr11   O99       2.01547      .   S
    N100   O101      1.05177      .   S
    Zr7    O101      2.04899      .   S
    N100   O102      1.06077      .   S
    Zr6    O102      2.06867      .   S
    N100   O103      1.05954  1_545   S
    Zr9    O103      2.06446  1_545   S
    N104   O105      1.07921      .   S
    Zr6    O105      2.09921      .   S
    N104   O106      1.05996      .   S
    Zr7    O106      2.09241      .   S
    N104   O107      1.05470      .   S
    Zr11   O107      2.04685      .   S
