# CIF file generated by openbabel 2.4.90, see http://openbabel.sf.net
data_I
_chemical_name_common ''
_cell_length_a 6.7645
_cell_length_b 6.7675
_cell_length_c 27.873
_cell_angle_alpha 90.329
_cell_angle_beta 90.02
_cell_angle_gamma 96.05
_space_group_name_H-M_alt 'P 1'
_space_group_name_Hall 'P 1'
loop_
    _symmetry_equiv_pos_as_xyz
    x,y,z
loop_
    _atom_site_label
    _atom_site_type_symbol
    _atom_site_fract_x
    _atom_site_fract_y
    _atom_site_fract_z
    _atom_site_occupancy
    H0      H    0.36185   0.82423   0.14545   1.000
    H1      H    0.36610   0.01794   0.19023   1.000
    H2      H    0.42121   0.33316   0.38371   1.000
    H3      H    0.46632   0.58916   0.31984   1.000
    H4      H    0.06219   0.92725   0.38264   1.000
    H5      H    0.00221   0.68810   0.45110   1.000
    H6      H    0.04137   0.35327   0.48253   1.000
    H7      H    0.16913   0.19006   0.44692   1.000
    H8      H    0.35784   0.49777   0.51940   1.000
    H9      H    0.82689   0.36301   0.85450   1.000
    H10     H    0.01965   0.36617   0.80978   1.000
    H11     H    0.32928   0.41842   0.61631   1.000
    H12     H    0.58555   0.46261   0.68058   1.000
    H13     H    0.92611   0.06326   0.61661   1.000
    H14     H    0.68657   0.00428   0.54774   1.000
    H15     H    0.35040   0.04257   0.51619   1.000
    H16     H    0.18724   0.17034   0.55177   1.000
    H17     H    0.49666   0.35912   0.48044   1.000
    H18     H    0.32681   0.86107   0.64542   1.000
    H19     H    0.51961   0.86539   0.69022   1.000
    H20     H    0.82975   0.92082   0.88389   1.000
    H21     H    0.08823   0.96787   0.82032   1.000
    H22     H    0.42345   0.56094   0.88198   1.000
    H23     H    0.18168   0.49879   0.95009   1.000
    H24     H    0.84579   0.53718   0.98145   1.000
    H25     H    0.68395   0.66738   0.94640   1.000
    H26     H    0.99254   0.85251   0.01903   1.000
    H27     H    0.86246   0.32888   0.35463   1.000
    H28     H    0.86569   0.52063   0.30990   1.000
    H29     H    0.91700   0.82581   0.11621   1.000
    H30     H    0.96396   0.08431   0.18018   1.000
    H31     H    0.56087   0.42182   0.11762   1.000
    H32     H    0.49886   0.17991   0.04910   1.000
    H33     H    0.53685   0.84341   0.01738   1.000
    H34     H    0.66728   0.68156   0.05234   1.000
    H35     H    0.85247   0.99247   0.98101   1.000
    C36     C    0.35116   0.85647   0.18378   1.000
    C37     C    0.34274   0.46543   0.38647   1.000
    C38     C    0.36822   0.60583   0.35025   1.000
    C39     C    0.14147   0.79551   0.38552   1.000
    C40     C    0.10937   0.66154   0.42314   1.000
    C41     C    0.21092   0.49136   0.42413   1.000
    C42     C    0.18178   0.33927   0.46342   1.000
    C43     C    0.85825   0.35166   0.81617   1.000
    C44     C    0.46201   0.34071   0.61340   1.000
    C45     C    0.60267   0.36573   0.64984   1.000
    C46     C    0.79368   0.14169   0.61392   1.000
    C47     C    0.65947   0.11009   0.57608   1.000
    C48     C    0.48857   0.21067   0.57528   1.000
    C49     C    0.33670   0.18267   0.53562   1.000
    C50     C    0.35821   0.85070   0.68375   1.000
    C51     C    0.96184   0.84209   0.88648   1.000
    C52     C    0.10370   0.86867   0.85043   1.000
    C53     C    0.29174   0.64036   0.88506   1.000
    C54     C    0.15631   0.60709   0.92249   1.000
    C55     C    0.98618   0.70880   0.92371   1.000
    C56     C    0.83284   0.67852   0.96289   1.000
    C57     C    0.85131   0.35945   0.31631   1.000
    C58     C    0.83901   0.95830   0.11353   1.000
    C59     C    0.86560   0.10021   0.14980   1.000
    C60     C    0.63944   0.28953   0.11467   1.000
    C61     C    0.60623   0.15402   0.07701   1.000
    C62     C    0.70712   0.98337   0.07589   1.000
    C63     C    0.67801   0.83073   0.03627   1.000
    C64     C    0.35428   0.35573   0.49975   1.000
    C65     C    0.84982   0.84947   0.99982   1.000
    N66     N    0.26980   0.76916   0.34961   1.000
    N67     N    0.76687   0.26854   0.65026   1.000
    N68     N    0.26694   0.77004   0.84954   1.000
    N69     N    0.76818   0.26422   0.15051   1.000
loop_
    _geom_bond_atom_site_label_1
    _geom_bond_atom_site_label_2
    _geom_bond_distance
    _geom_bond_site_symmetry_2
    _ccdc_geom_bond_type
    H33    C63       1.10166      .   S
    H26    C65       1.10205  1_554   S
    C63    H34       1.10218      .   S
    C63    C62       1.50645      .   S
    C63    C65       1.53951  1_554   S
    H32    C61       1.09152      .   S
    C62    C61       1.40221  1_565   S
    C62    C58       1.39951      .   S
    C61    C60       1.39222      .   S
    C58    H29       1.09010      .   S
    C58    C59       1.38892  1_565   S
    C60    H31       1.09105      .   S
    C60    N69       1.34865      .   S
    H0     C36       1.09311      .   S
    C59    N69       1.34928      .   S
    C59    H30       1.08949      .   S
    C36    H1        1.10051  1_565   S
    H28    C57       1.10051      .   S
    C57    H27       1.09319      .   S
    H3     C38       1.08950      .   S
    N66    C38       1.34928      .   S
    N66    C39       1.34854      .   S
    C38    C37       1.38864      .   S
    H4     C39       1.09108      .   S
    H2     C37       1.09014      .   S
    C39    C40       1.39227      .   S
    C37    C41       1.39964      .   S
    C40    C41       1.40217      .   S
    C40    H5        1.09150      .   S
    C41    C42       1.50610      .   S
    H7     C42       1.10222      .   S
    C42    H6        1.10160      .   S
    C42    C64       1.53929      .   S
    H17    C64       1.10172      .   S
    C64    H8        1.10171      .   S
    C64    C49       1.53936      .   S
    H15    C49       1.10161      .   S
    C49    H16       1.10221      .   S
    C49    C48       1.50632      .   S
    H14    C47       1.09152      .   S
    C48    C47       1.40227      .   S
    C48    C44       1.39953      .   S
    C47    C46       1.39228      .   S
    C44    H11       1.09013      .   S
    C44    C45       1.38881      .   S
    C46    H13       1.09108      .   S
    C46    N67       1.34857      .   S
    H18    C50       1.09322      .   S
    C45    N67       1.34929      .   S
    C45    H12       1.08946      .   S
    C50    H19       1.10055      .   S
    H10    C43       1.10052  1_455   S
    C43    H9        1.09315      .   S
    H21    C52       1.08949      .   S
    N68    C52       1.34936      .   S
    N68    C53       1.34864      .   S
    C52    C51       1.38898  1_455   S
    H22    C53       1.09107      .   S
    H20    C51       1.09012      .   S
    C53    C54       1.39222      .   S
    C51    C55       1.39974      .   S
    C54    C55       1.40219  1_455   S
    C54    H23       1.09151      .   S
    C55    C56       1.50650      .   S
    H25    C56       1.10217      .   S
    C56    H24       1.10162      .   S
    C56    C65       1.53916      .   S
    H35    C65       1.10182      .   S
