# CIF file generated by openbabel 2.4.90, see http://openbabel.sf.net
data_I
_chemical_name_common ''
_cell_length_a 6.7645
_cell_length_b 6.7675
_cell_length_c 27.873
_cell_angle_alpha 90.329
_cell_angle_beta 90.02
_cell_angle_gamma 96.05
_space_group_name_H-M_alt 'P 1'
_space_group_name_Hall 'P 1'
loop_
    _symmetry_equiv_pos_as_xyz
    x,y,z
loop_
    _atom_site_label
    _atom_site_type_symbol
    _atom_site_fract_x
    _atom_site_fract_y
    _atom_site_fract_z
    _atom_site_occupancy
    Lv0     Lv   0.38519   0.38632   0.49974   1.000
    Lv1     Lv   0.88261   0.88208   0.99983   1.000
    Lv2     Lv   0.90160   0.36028   0.82681   1.000
    Lv3     Lv   0.85982   0.40298   0.32695   1.000
    Lv4     Lv   0.40155   0.85906   0.67313   1.000
    Lv5     Lv   0.35971   0.89955   0.17315   1.000
