# CIF file generated by openbabel 2.4.90, see http://openbabel.sf.net
data_I
_chemical_name_common ''
_cell_length_a 6.7645
_cell_length_b 6.7675
_cell_length_c 27.873
_cell_angle_alpha 90.329
_cell_angle_beta 90.02
_cell_angle_gamma 96.05
_space_group_name_H-M_alt 'P 1'
_space_group_name_Hall 'P 1'
loop_
    _symmetry_equiv_pos_as_xyz
    x,y,z
loop_
    _atom_site_label
    _atom_site_type_symbol
    _atom_site_fract_x
    _atom_site_fract_y
    _atom_site_fract_z
    _atom_site_occupancy
    Zn0     Zn   0.96546   0.31715   0.70839   1.000
    Zn1     Zn   0.46544   0.81735   0.79155   1.000
    Zn2     Zn   0.81726   0.46443   0.20847   1.000
    H3      H    0.36185   0.82423   0.14545   1.000
    H4      H    0.36610   0.01794   0.19023   1.000
    H5      H    0.42121   0.33316   0.38371   1.000
    H6      H    0.46632   0.58916   0.31984   1.000
    H7      H    0.06219   0.92725   0.38264   1.000
    H8      H    0.00221   0.68810   0.45110   1.000
    H9      H    0.04137   0.35327   0.48253   1.000
    H10     H    0.16913   0.19006   0.44692   1.000
    H11     H    0.35784   0.49777   0.51940   1.000
    H12     H    0.82689   0.36301   0.85450   1.000
    H13     H    0.01965   0.36617   0.80978   1.000
    H14     H    0.32928   0.41842   0.61631   1.000
    H15     H    0.58555   0.46261   0.68058   1.000
    H16     H    0.92611   0.06326   0.61661   1.000
    H17     H    0.68657   0.00428   0.54774   1.000
    H18     H    0.35040   0.04257   0.51619   1.000
    H19     H    0.18724   0.17034   0.55177   1.000
    H20     H    0.49666   0.35912   0.48044   1.000
    H21     H    0.32681   0.86107   0.64542   1.000
    H22     H    0.51961   0.86539   0.69022   1.000
    H23     H    0.82975   0.92082   0.88389   1.000
    H24     H    0.08823   0.96787   0.82032   1.000
    H25     H    0.42345   0.56094   0.88198   1.000
    H26     H    0.18168   0.49879   0.95009   1.000
    H27     H    0.84579   0.53718   0.98145   1.000
    H28     H    0.68395   0.66738   0.94640   1.000
    H29     H    0.99254   0.85251   0.01903   1.000
    H30     H    0.86246   0.32888   0.35463   1.000
    H31     H    0.86569   0.52063   0.30990   1.000
    Zn32    Zn   0.31730   0.96592   0.29157   1.000
    H33     H    0.91700   0.82581   0.11621   1.000
    H34     H    0.96396   0.08431   0.18018   1.000
    H35     H    0.56087   0.42182   0.11762   1.000
    H36     H    0.49886   0.17991   0.04910   1.000
    H37     H    0.53685   0.84341   0.01738   1.000
    H38     H    0.66728   0.68156   0.05234   1.000
    H39     H    0.85247   0.99247   0.98101   1.000
    C40     C    0.15404   0.76363   0.20400   1.000
    C41     C    0.35116   0.85647   0.18378   1.000
    C42     C    0.51544   0.76716   0.21153   1.000
    C43     C    0.34274   0.46543   0.38647   1.000
    C44     C    0.36822   0.60583   0.35025   1.000
    C45     C    0.14147   0.79551   0.38552   1.000
    C46     C    0.10937   0.66154   0.42314   1.000
    C47     C    0.21092   0.49136   0.42413   1.000
    C48     C    0.18178   0.33927   0.46342   1.000
    C49     C    0.76462   0.15436   0.79578   1.000
    C50     C    0.85825   0.35166   0.81617   1.000
    C51     C    0.76861   0.51567   0.78853   1.000
    C52     C    0.46201   0.34071   0.61340   1.000
    C53     C    0.60267   0.36573   0.64984   1.000
    C54     C    0.79368   0.14169   0.61392   1.000
    C55     C    0.65947   0.11009   0.57608   1.000
    C56     C    0.48857   0.21067   0.57528   1.000
    C57     C    0.33670   0.18267   0.53562   1.000
    C58     C    0.26449   0.65406   0.70388   1.000
    C59     C    0.35821   0.85070   0.68375   1.000
    C60     C    0.26868   0.01554   0.71158   1.000
    C61     C    0.96184   0.84209   0.88648   1.000
    C62     C    0.10370   0.86867   0.85043   1.000
    C63     C    0.29174   0.64036   0.88506   1.000
    C64     C    0.15631   0.60709   0.92249   1.000
    C65     C    0.98618   0.70880   0.92371   1.000
    C66     C    0.83284   0.67852   0.96289   1.000
    C67     C    0.65425   0.26517   0.29603   1.000
    C68     C    0.85131   0.35945   0.31631   1.000
    C69     C    0.01567   0.26939   0.28853   1.000
    C70     C    0.83901   0.95830   0.11353   1.000
    C71     C    0.86560   0.10021   0.14980   1.000
    C72     C    0.63944   0.28953   0.11467   1.000
    C73     C    0.60623   0.15402   0.07701   1.000
    C74     C    0.70712   0.98337   0.07589   1.000
    C75     C    0.67801   0.83073   0.03627   1.000
    C76     C    0.35428   0.35573   0.49975   1.000
    C77     C    0.84982   0.84947   0.99982   1.000
    N78     N    0.26980   0.76916   0.34961   1.000
    N79     N    0.76687   0.26854   0.65026   1.000
    N80     N    0.26694   0.77004   0.84954   1.000
    N81     N    0.76818   0.26422   0.15051   1.000
    O82     O    0.10781   0.80814   0.24662   1.000
    O83     O    0.04882   0.64087   0.17722   1.000
    O84     O    0.53408   0.80781   0.25587   1.000
    O85     O    0.61793   0.65396   0.18761   1.000
    O86     O    0.80765   0.10779   0.75310   1.000
    O87     O    0.64275   0.04962   0.82258   1.000
    O88     O    0.80834   0.53376   0.74421   1.000
    O89     O    0.65605   0.61863   0.81249   1.000
    O90     O    0.30853   0.60797   0.74643   1.000
    O91     O    0.14156   0.54900   0.67714   1.000
    O92     O    0.30779   0.03406   0.75598   1.000
    O93     O    0.15699   0.11860   0.68763   1.000
    O94     O    0.60771   0.30803   0.25345   1.000
    O95     O    0.54960   0.14303   0.32274   1.000
    O96     O    0.03395   0.30811   0.24418   1.000
    O97     O    0.11861   0.15751   0.31242   1.000
loop_
    _geom_bond_atom_site_label_1
    _geom_bond_atom_site_label_2
    _geom_bond_distance
    _geom_bond_site_symmetry_2
    _ccdc_geom_bond_type
    H37    C75       1.10166      .   S
    H29    C77       1.10205  1_554   S
    C75    H38       1.10218      .   S
    C75    C74       1.50645      .   S
    C75    C77       1.53951  1_554   S
    H36    C73       1.09152      .   S
    C74    C73       1.40221  1_565   S
    C74    C70       1.39951      .   S
    C73    C72       1.39222      .   S
    C70    H33       1.09010      .   S
    C70    C71       1.38892  1_565   S
    C72    H35       1.09105      .   S
    C72    N81       1.34865      .   S
    H3     C41       1.09311      .   S
    C71    N81       1.34928      .   S
    C71    H34       1.08949      .   S
    N81    Zn2       2.10611      .   S
    O83    C40       1.27346      .   S
    O83    Zn2       2.06322  1_455   S
    C41    H4        1.10051  1_565   S
    C41    C40       1.52268      .   S
    C41    C42       1.53128      .   S
    O85    Zn2       2.04307      .   S
    O85    C42       1.27222      .   S
    C40    O82       1.27102      .   S
    Zn2    O96       2.14387  1_655   S
    Zn2    O94       2.09792      .   S
    C42    O84       1.26805      .   S
    O96    C69       1.26837      .   S
    O82    Zn32      2.09355      .   S
    O94    C67       1.27077      .   S
    O84    Zn32      2.14600      .   S
    C69    O97       1.27216      .   S
    C69    C68       1.53138  1_455   S
    Zn32   O97       2.04558  1_565   S
    Zn32   O95       2.06165  1_565   S
    Zn32   N78       2.10422      .   S
    C67    C68       1.52299      .   S
    C67    O95       1.27383      .   S
    H31    C68       1.10051      .   S
    C68    H30       1.09319      .   S
    H6     C44       1.08950      .   S
    N78    C44       1.34928      .   S
    N78    C45       1.34854      .   S
    C44    C43       1.38864      .   S
    H7     C45       1.09108      .   S
    H5     C43       1.09014      .   S
    C45    C46       1.39227      .   S
    C43    C47       1.39964      .   S
    C46    C47       1.40217      .   S
    C46    H8        1.09150      .   S
    C47    C48       1.50610      .   S
    H10    C48       1.10222      .   S
    C48    H9        1.10160      .   S
    C48    C76       1.53929      .   S
    H20    C76       1.10172      .   S
    C76    H11       1.10171      .   S
    C76    C57       1.53936      .   S
    H18    C57       1.10161      .   S
    C57    H19       1.10221      .   S
    C57    C56       1.50632      .   S
    H17    C55       1.09152      .   S
    C56    C55       1.40227      .   S
    C56    C52       1.39953      .   S
    C55    C54       1.39228      .   S
    C52    H14       1.09013      .   S
    C52    C53       1.38881      .   S
    C54    H16       1.09108      .   S
    C54    N79       1.34857      .   S
    H21    C59       1.09322      .   S
    C53    N79       1.34929      .   S
    C53    H15       1.08946      .   S
    N79    Zn0       2.10644      .   S
    O91    C58       1.27332      .   S
    O91    Zn0       2.06446  1_455   S
    C59    H22       1.10055      .   S
    C59    C58       1.52270      .   S
    C59    C60       1.53159  1_565   S
    O93    Zn0       2.04389  1_455   S
    O93    C60       1.27241      .   S
    C58    O90       1.27123      .   S
    Zn0    O88       2.14189      .   S
    Zn0    O86       2.09816      .   S
    C60    O92       1.26801      .   S
    O88    C51       1.26831      .   S
    O90    Zn1       2.09237      .   S
    O86    C49       1.27080      .   S
    O92    Zn1       2.14874  1_545   S
    C51    O89       1.27197      .   S
    C51    C50       1.53116      .   S
    Zn1    O89       2.04590      .   S
    Zn1    O87       2.05994  1_565   S
    Zn1    N80       2.10597      .   S
    C49    C50       1.52304      .   S
    C49    O87       1.27402      .   S
    H13    C50       1.10052  1_455   S
    C50    H12       1.09315      .   S
    H24    C62       1.08949      .   S
    N80    C62       1.34936      .   S
    N80    C63       1.34864      .   S
    C62    C61       1.38898  1_455   S
    H25    C63       1.09107      .   S
    H23    C61       1.09012      .   S
    C63    C64       1.39222      .   S
    C61    C65       1.39974      .   S
    C64    C65       1.40219  1_455   S
    C64    H26       1.09151      .   S
    C65    C66       1.50650      .   S
    H28    C66       1.10217      .   S
    C66    H27       1.10162      .   S
    C66    C77       1.53916      .   S
    H39    C77       1.10182      .   S
