# CIF file generated by openbabel 2.4.90, see http://openbabel.sf.net
data_I
_chemical_name_common ''
_cell_length_a 6.7645
_cell_length_b 6.7675
_cell_length_c 27.873
_cell_angle_alpha 90.329
_cell_angle_beta 90.02
_cell_angle_gamma 96.05
_space_group_name_H-M_alt 'P 1'
_space_group_name_Hall 'P 1'
loop_
    _symmetry_equiv_pos_as_xyz
    x,y,z
loop_
    _atom_site_label
    _atom_site_type_symbol
    _atom_site_fract_x
    _atom_site_fract_y
    _atom_site_fract_z
    _atom_site_occupancy
    Zn0     Zn   0.96546   0.31715   0.70839   1.000
    Zn1     Zn   0.46544   0.81735   0.79155   1.000
    Zn2     Zn   0.81726   0.46443   0.20847   1.000
    Zn3     Zn   0.31730   0.96592   0.29157   1.000
    C4      C    0.15404   0.76363   0.20400   1.000
    C5      C    0.51544   0.76716   0.21153   1.000
    C6      C    0.76462   0.15436   0.79578   1.000
    C7      C    0.76861   0.51567   0.78853   1.000
    C8      C    0.26449   0.65406   0.70388   1.000
    C9      C    0.26868   0.01554   0.71158   1.000
    C10     C    0.65425   0.26517   0.29603   1.000
    C11     C    0.01567   0.26939   0.28853   1.000
    O12     O    0.10781   0.80814   0.24662   1.000
    O13     O    0.04882   0.64087   0.17722   1.000
    O14     O    0.53408   0.80781   0.25587   1.000
    O15     O    0.61793   0.65396   0.18761   1.000
    O16     O    0.80765   0.10779   0.75310   1.000
    O17     O    0.64275   0.04962   0.82258   1.000
    O18     O    0.80834   0.53376   0.74421   1.000
    O19     O    0.65605   0.61863   0.81249   1.000
    O20     O    0.30853   0.60797   0.74643   1.000
    O21     O    0.14156   0.54900   0.67714   1.000
    O22     O    0.30779   0.03406   0.75598   1.000
    O23     O    0.15699   0.11860   0.68763   1.000
    O24     O    0.60771   0.30803   0.25345   1.000
    O25     O    0.54960   0.14303   0.32274   1.000
    O26     O    0.03395   0.30811   0.24418   1.000
    O27     O    0.11861   0.15751   0.31242   1.000
    Ts28    Ts   0.89926   0.30095   0.68901   1.000
    Ts29    Ts   0.39927   0.80158   0.81088   1.000
    Ts30    Ts   0.80090   0.39769   0.18915   1.000
    Ts31    Ts   0.30147   0.90033   0.31092   1.000
    Og32    Og   0.21975   0.79458   0.19726   1.000
    Og33    Og   0.46068   0.79693   0.20228   1.000
    Og34    Og   0.79583   0.22013   0.80258   1.000
    Og35    Og   0.79849   0.46100   0.79774   1.000
    Og36    Og   0.29573   0.71961   0.69717   1.000
    Og37    Og   0.29853   0.96059   0.70230   1.000
    Og38    Og   0.71994   0.29660   0.30279   1.000
    Og39    Og   0.96089   0.29941   0.29779   1.000
loop_
    _geom_bond_atom_site_label_1
    _geom_bond_atom_site_label_2
    _geom_bond_distance
    _geom_bond_site_symmetry_2
    _ccdc_geom_bond_type
    O13    C4        1.27346      .   S
    O13    Zn2       2.06322  1_455   S
    O15    Zn2       2.04307      .   S
    O15    C5        1.27222      .   S
    C4     O12       1.27102      .   S
    Zn2    O26       2.14387  1_655   S
    Zn2    O24       2.09792      .   S
    C5     O14       1.26805      .   S
    O26    C11       1.26837      .   S
    O12    Zn3       2.09355      .   S
    O24    C10       1.27077      .   S
    O14    Zn3       2.14600      .   S
    C11    O27       1.27216      .   S
    Zn3    O27       2.04558  1_565   S
    Zn3    O25       2.06165  1_565   S
    C10    O25       1.27383      .   S
    O21    C8        1.27332      .   S
    O21    Zn0       2.06446  1_455   S
    O23    Zn0       2.04389  1_455   S
    O23    C9        1.27241      .   S
    C8     O20       1.27123      .   S
    Zn0    O18       2.14189      .   S
    Zn0    O16       2.09816      .   S
    C9     O22       1.26801      .   S
    O18    C7        1.26831      .   S
    O20    Zn1       2.09237      .   S
    O16    C6        1.27080      .   S
    O22    Zn1       2.14874  1_545   S
    C7     O19       1.27197      .   S
    Zn1    O19       2.04590      .   S
    Zn1    O17       2.05994  1_565   S
    C6     O17       1.27402      .   S
    Zn0    Ts28      0.70215      .   S
    Zn1    Ts29      0.70199      .   S
    Zn2    Ts30      0.70204      .   S
    Zn3    Ts31      0.70141      .   S
    C4     Og32      0.50756      .   S
    C5     Og33      0.51043      .   S
    C6     Og34      0.50768      .   S
    C7     Og35      0.51039      .   S
    C8     Og36      0.50757      .   S
    C9     Og37      0.51053  1_545   S
    C10    Og38      0.50766      .   S
    C11    Og39      0.51046  1_455   S
