# CIF file generated by openbabel 2.4.90, see http://openbabel.sf.net
data_I
_chemical_name_common ''
_cell_length_a 6.7645
_cell_length_b 6.7675
_cell_length_c 27.873
_cell_angle_alpha 90.329
_cell_angle_beta 90.02
_cell_angle_gamma 96.05
_space_group_name_H-M_alt 'P 1'
_space_group_name_Hall 'P 1'
loop_
    _symmetry_equiv_pos_as_xyz
    x,y,z
loop_
    _atom_site_label
    _atom_site_type_symbol
    _atom_site_fract_x
    _atom_site_fract_y
    _atom_site_fract_z
    _atom_site_occupancy
    C0      C    0.15404   0.76363   0.20400   1.000
    C1      C    0.51544   0.76716   0.21153   1.000
    C2      C    0.76462   0.15436   0.79578   1.000
    C3      C    0.76861   0.51567   0.78853   1.000
    C4      C    0.26449   0.65406   0.70388   1.000
    C5      C    0.26868   0.01554   0.71158   1.000
    C6      C    0.65425   0.26517   0.29603   1.000
    C7      C    0.01567   0.26939   0.28853   1.000
    O8      O    0.10781   0.80814   0.24662   1.000
    O9      O    0.04882   0.64087   0.17722   1.000
    O10     O    0.53408   0.80781   0.25587   1.000
    O11     O    0.61793   0.65396   0.18761   1.000
    O12     O    0.80765   0.10779   0.75310   1.000
    O13     O    0.64275   0.04962   0.82258   1.000
    O14     O    0.80834   0.53376   0.74421   1.000
    O15     O    0.65605   0.61863   0.81249   1.000
    O16     O    0.30853   0.60797   0.74643   1.000
    O17     O    0.14156   0.54900   0.67714   1.000
    O18     O    0.30779   0.03406   0.75598   1.000
    O19     O    0.15699   0.11860   0.68763   1.000
    O20     O    0.60771   0.30803   0.25345   1.000
    O21     O    0.54960   0.14303   0.32274   1.000
    O22     O    0.03395   0.30811   0.24418   1.000
    O23     O    0.11861   0.15751   0.31242   1.000
loop_
    _geom_bond_atom_site_label_1
    _geom_bond_atom_site_label_2
    _geom_bond_distance
    _geom_bond_site_symmetry_2
    _ccdc_geom_bond_type
    O9     C0        1.27346      .   S
    O11    C1        1.27222      .   S
    C0     O8        1.27102      .   S
    C1     O10       1.26805      .   S
    O22    C7        1.26837      .   S
    O20    C6        1.27077      .   S
    C7     O23       1.27216      .   S
    C6     O21       1.27383      .   S
    O17    C4        1.27332      .   S
    O19    C5        1.27241      .   S
    C4     O16       1.27123      .   S
    C5     O18       1.26801      .   S
    O14    C3        1.26831      .   S
    O12    C2        1.27080      .   S
    C3     O15       1.27197      .   S
    C2     O13       1.27402      .   S
