# CIF file generated by openbabel 2.4.90, see http://openbabel.sf.net
data_I
_chemical_name_common ''
_cell_length_a 6.7645
_cell_length_b 6.7675
_cell_length_c 27.873
_cell_angle_alpha 90.329
_cell_angle_beta 90.02
_cell_angle_gamma 96.05
_space_group_name_H-M_alt 'P 1'
_space_group_name_Hall 'P 1'
loop_
    _symmetry_equiv_pos_as_xyz
    x,y,z
loop_
    _atom_site_label
    _atom_site_type_symbol
    _atom_site_fract_x
    _atom_site_fract_y
    _atom_site_fract_z
    _atom_site_occupancy
    C0      C    0.15404   0.76363   0.20400   1.000
    C1      C    0.51544   0.76716   0.21153   1.000
    C2      C    0.76462   0.15436   0.79578   1.000
    C3      C    0.76861   0.51567   0.78853   1.000
    C4      C    0.26449   0.65406   0.70388   1.000
    C5      C    0.26868   0.01554   0.71158   1.000
    C6      C    0.65425   0.26517   0.29603   1.000
    C7      C    0.01567   0.26939   0.28853   1.000
