# CIF file generated by openbabel 2.4.90, see http://openbabel.sf.net
data_I
_chemical_name_common ''
_cell_length_a 6.7645
_cell_length_b 6.7675
_cell_length_c 27.873
_cell_angle_alpha 90.329
_cell_angle_beta 90.02
_cell_angle_gamma 96.05
_space_group_name_H-M_alt 'P 1'
_space_group_name_Hall 'P 1'
loop_
    _symmetry_equiv_pos_as_xyz
    x,y,z
loop_
    _atom_site_label
    _atom_site_type_symbol
    _atom_site_fract_x
    _atom_site_fract_y
    _atom_site_fract_z
    _atom_site_occupancy
    Zr0     Zr   0.31730   0.96592   0.29157   1.000
    Zr1     Zr   0.96546   0.31715   0.70839   1.000
    Zr2     Zr   0.46544   0.81735   0.79155   1.000
    Zr3     Zr   0.81726   0.46443   0.20847   1.000
    N4      N    0.38519   0.38632   0.49974   1.000
    O5      O    0.33937   0.62693   0.41017   1.000
    O6      O    0.62568   0.33958   0.58953   1.000
    N7      N    0.88261   0.88208   0.99983   1.000
    O8      O    0.83766   0.12320   0.08966   1.000
    O9      O    0.12440   0.83789   0.91019   1.000
    N10     N    0.90160   0.36028   0.82681   1.000
    N11     N    0.85982   0.40298   0.32695   1.000
    N12     N    0.40155   0.85906   0.67313   1.000
    N13     N    0.35971   0.89955   0.17315   1.000
    C14     C    0.74433   0.55602   0.78174   1.000
    O15     O    0.80092   0.47650   0.79816   1.000
    O16     O    0.65254   0.63701   0.79188   1.000
    O17     O    0.81562   0.49074   0.75402   1.000
    C18     C    0.24449   0.05607   0.71840   1.000
    O19     O    0.30099   0.97608   0.70190   1.000
    O20     O    0.15286   0.13697   0.70820   1.000
    O21     O    0.31555   0.99089   0.74608   1.000
    C22     C    0.73834   0.10392   0.79048   1.000
    O23     O    0.64622   0.01871   0.79877   1.000
    O24     O    0.81245   0.15820   0.76061   1.000
    O25     O    0.79743   0.20529   0.80344   1.000
    C26     C    0.23819   0.60368   0.70915   1.000
    O27     O    0.31259   0.65817   0.73907   1.000
    O28     O    0.14585   0.51838   0.70096   1.000
    O29     O    0.29732   0.70470   0.69631   1.000
    C30     C    0.10356   0.73755   0.20928   1.000
    O31     O    0.01830   0.64510   0.20107   1.000
    O32     O    0.15806   0.81229   0.23919   1.000
    O33     O    0.20485   0.79617   0.19640   1.000
    C34     C    0.60385   0.23874   0.29074   1.000
    O35     O    0.70508   0.29820   0.30365   1.000
    O36     O    0.51865   0.14661   0.29895   1.000
    O37     O    0.65817   0.31249   0.26085   1.000
    C38     C    0.05608   0.24500   0.28171   1.000
    O39     O    0.99084   0.31564   0.25402   1.000
    O40     O    0.97637   0.30185   0.29820   1.000
    O41     O    0.13702   0.15336   0.29185   1.000
    C42     C    0.55582   0.74297   0.21833   1.000
    O43     O    0.49075   0.81492   0.24603   1.000
    O44     O    0.63671   0.65108   0.20819   1.000
    O45     O    0.47616   0.79933   0.20187   1.000
loop_
    _geom_bond_atom_site_label_1
    _geom_bond_atom_site_label_2
    _geom_bond_distance
    _geom_bond_site_symmetry_2
    _ccdc_geom_bond_type
    N4     O5        3.02219      .   S
    Zr0    O5        4.04605      .   S
    N4     O6        3.02075      .   S
    Zr1    O6        4.04413      .   S
    N7     O8        3.01378  1_566   S
    Zr3    O8        4.03715      .   S
    N7     O9        3.01741  1_655   S
    Zr2    O9        4.04274      .   S
    C14    O15       0.83174      .   S
    N10    O15       1.35645      .   S
    C14    O16       0.91427      .   S
    Zr2    O16       1.84859      .   S
    C14    O17       1.03248      .   S
    Zr1    O17       2.06396      .   S
    C18    O19       0.83155  1_545   S
    N12    O19       1.35623      .   S
    C18    O20       0.91537      .   S
    Zr1    O20       1.84921  1_655   S
    C18    O21       1.03413  1_545   S
    Zr2    O21       2.06903      .   S
    C22    O23       0.83678      .   S
    Zr2    O23       1.74304  1_565   S
    C22    O24       1.02197      .   S
    Zr1    O24       2.03269      .   S
    C22    O25       0.83663      .   S
    N10    O25       1.36282      .   S
    C26    O27       1.02068      .   S
    Zr2    O27       2.02868      .   S
    C26    O28       0.83544      .   S
    Zr1    O28       1.74346  1_655   S
    C26    O29       0.83706      .   S
    N12    O29       1.36328      .   S
    C30    O31       0.83588      .   S
    Zr3    O31       1.74347  1_655   S
    C30    O32       1.02093      .   S
    Zr0    O32       2.02948      .   S
    C30    O33       0.83686      .   S
    N13    O33       1.36300      .   S
    C34    O35       0.83683      .   S
    N11    O35       1.36309      .   S
    C34    O36       0.83623      .   S
    Zr0    O36       1.74313  1_565   S
    C34    O37       1.02197      .   S
    Zr3    O37       2.03268      .   S
    C38    O39       1.03317  1_455   S
    Zr3    O39       2.06570      .   S
    C38    O40       0.83172  1_455   S
    N11    O40       1.35645      .   S
    C38    O41       0.91534      .   S
    Zr0    O41       1.84996  1_565   S
    C42    O43       1.03330      .   S
    Zr0    O43       2.06677      .   S
    C42    O44       0.91429      .   S
    Zr3    O44       1.84735      .   S
    C42    O45       0.83162      .   S
    N13    O45       1.35632      .   S
