# CIF file generated by openbabel 2.4.90, see http://openbabel.sf.net
data_I
_chemical_name_common ''
_cell_length_a 6.7645
_cell_length_b 6.7675
_cell_length_c 27.873
_cell_angle_alpha 90.329
_cell_angle_beta 90.02
_cell_angle_gamma 96.05
_space_group_name_H-M_alt 'P 1'
_space_group_name_Hall 'P 1'
loop_
    _symmetry_equiv_pos_as_xyz
    x,y,z
loop_
    _atom_site_label
    _atom_site_type_symbol
    _atom_site_fract_x
    _atom_site_fract_y
    _atom_site_fract_z
    _atom_site_occupancy
    C0      C    0.31730   0.96592   0.29157   1.000
    C1      C    0.96546   0.31715   0.70839   1.000
    C2      C    0.46544   0.81735   0.79155   1.000
    C3      C    0.81726   0.46443   0.20847   1.000
    C4      C    0.36185   0.82423   0.14545   1.000
    C5      C    0.36610   0.01794   0.19023   1.000
    C6      C    0.42121   0.33316   0.38371   1.000
    C7      C    0.46632   0.58916   0.31984   1.000
    C8      C    0.06219   0.92725   0.38264   1.000
    C9      C    0.00221   0.68810   0.45110   1.000
    C10     C    0.04137   0.35327   0.48253   1.000
    C11     C    0.16913   0.19006   0.44692   1.000
    C12     C    0.35784   0.49777   0.51940   1.000
    C13     C    0.82689   0.36301   0.85450   1.000
    C14     C    0.01965   0.36617   0.80978   1.000
    C15     C    0.32928   0.41842   0.61631   1.000
    C16     C    0.58555   0.46261   0.68058   1.000
    C17     C    0.92611   0.06326   0.61661   1.000
    C18     C    0.68657   0.00428   0.54774   1.000
    C19     C    0.35040   0.04257   0.51619   1.000
    C20     C    0.18724   0.17034   0.55177   1.000
    C21     C    0.49666   0.35912   0.48044   1.000
    C22     C    0.32681   0.86107   0.64542   1.000
    C23     C    0.51961   0.86539   0.69022   1.000
    C24     C    0.82975   0.92082   0.88389   1.000
    C25     C    0.08823   0.96787   0.82032   1.000
    C26     C    0.42345   0.56094   0.88198   1.000
    C27     C    0.18168   0.49879   0.95009   1.000
    C28     C    0.84579   0.53718   0.98145   1.000
    C29     C    0.68395   0.66738   0.94640   1.000
    C30     C    0.99254   0.85251   0.01903   1.000
    C31     C    0.86246   0.32888   0.35463   1.000
    C32     C    0.86569   0.52063   0.30990   1.000
    C33     C    0.91700   0.82581   0.11621   1.000
    C34     C    0.96396   0.08431   0.18018   1.000
    C35     C    0.56087   0.42182   0.11762   1.000
    C36     C    0.49886   0.17991   0.04910   1.000
    C37     C    0.53685   0.84341   0.01738   1.000
    C38     C    0.66728   0.68156   0.05234   1.000
    C39     C    0.85247   0.99247   0.98101   1.000
    C40     C    0.15404   0.76363   0.20400   1.000
    C41     C    0.35116   0.85647   0.18378   1.000
    C42     C    0.51544   0.76716   0.21153   1.000
    C43     C    0.34274   0.46543   0.38647   1.000
    C44     C    0.36822   0.60583   0.35025   1.000
    C45     C    0.14147   0.79551   0.38552   1.000
    C46     C    0.10937   0.66154   0.42314   1.000
    C47     C    0.21092   0.49136   0.42413   1.000
    C48     C    0.18178   0.33927   0.46342   1.000
    C49     C    0.76462   0.15436   0.79578   1.000
    C50     C    0.85825   0.35166   0.81617   1.000
    C51     C    0.76861   0.51567   0.78853   1.000
    C52     C    0.46201   0.34071   0.61340   1.000
    C53     C    0.60267   0.36573   0.64984   1.000
    C54     C    0.79368   0.14169   0.61392   1.000
    C55     C    0.65947   0.11009   0.57608   1.000
    C56     C    0.48857   0.21067   0.57528   1.000
    C57     C    0.33670   0.18267   0.53562   1.000
    C58     C    0.26449   0.65406   0.70388   1.000
    C59     C    0.35821   0.85070   0.68375   1.000
    C60     C    0.26868   0.01554   0.71158   1.000
    C61     C    0.96184   0.84209   0.88648   1.000
    C62     C    0.10370   0.86867   0.85043   1.000
    C63     C    0.29174   0.64036   0.88506   1.000
    C64     C    0.15631   0.60709   0.92249   1.000
    C65     C    0.98618   0.70880   0.92371   1.000
    C66     C    0.83284   0.67852   0.96289   1.000
    C67     C    0.65425   0.26517   0.29603   1.000
    C68     C    0.85131   0.35945   0.31631   1.000
    C69     C    0.01567   0.26939   0.28853   1.000
    C70     C    0.83901   0.95830   0.11353   1.000
    C71     C    0.86560   0.10021   0.14980   1.000
    C72     C    0.63944   0.28953   0.11467   1.000
    C73     C    0.60623   0.15402   0.07701   1.000
    C74     C    0.70712   0.98337   0.07589   1.000
    C75     C    0.67801   0.83073   0.03627   1.000
    C76     C    0.35428   0.35573   0.49975   1.000
    C77     C    0.84982   0.84947   0.99982   1.000
    C78     C    0.26980   0.76916   0.34961   1.000
    C79     C    0.76687   0.26854   0.65026   1.000
    C80     C    0.26694   0.77004   0.84954   1.000
    C81     C    0.76818   0.26422   0.15051   1.000
    C82     C    0.10781   0.80814   0.24662   1.000
    C83     C    0.04882   0.64087   0.17722   1.000
    C84     C    0.53408   0.80781   0.25587   1.000
    C85     C    0.61793   0.65396   0.18761   1.000
    C86     C    0.80765   0.10779   0.75310   1.000
    C87     C    0.64275   0.04962   0.82258   1.000
    C88     C    0.80834   0.53376   0.74421   1.000
    C89     C    0.65605   0.61863   0.81249   1.000
    C90     C    0.30853   0.60797   0.74643   1.000
    C91     C    0.14156   0.54900   0.67714   1.000
    C92     C    0.30779   0.03406   0.75598   1.000
    C93     C    0.15699   0.11860   0.68763   1.000
    C94     C    0.60771   0.30803   0.25345   1.000
    C95     C    0.54960   0.14303   0.32274   1.000
    C96     C    0.03395   0.30811   0.24418   1.000
    C97     C    0.11861   0.15751   0.31242   1.000
    O98     O    0.60743   0.83707   0.02682   1.000
    O99     O    0.92118   0.85099   0.00943   1.000
    O100    O    0.67264   0.75614   0.04430   1.000
    O101    O    0.69257   0.90705   0.05608   1.000
    O102    O    0.76392   0.84010   0.01804   1.000
    O103    O    0.55255   0.16696   0.06306   1.000
    O104    O    0.65668   0.06870   0.07645   1.000
    O105    O    0.77306   0.97084   0.09471   1.000
    O106    O    0.62284   0.22177   0.09584   1.000
    O107    O    0.87800   0.89205   0.11487   1.000
    O108    O    0.85230   0.02925   0.13166   1.000
    O109    O    0.60015   0.35567   0.11614   1.000
    O110    O    0.70381   0.27687   0.13259   1.000
    O111    O    0.35651   0.84035   0.16461   1.000
    O112    O    0.81689   0.18221   0.15016   1.000
    O113    O    0.91478   0.09226   0.16499   1.000
    O114    O    0.79272   0.36432   0.17949   1.000
    O115    O    0.10143   0.70225   0.19061   1.000
    O116    O    0.93304   0.55265   0.19285   1.000
    O117    O    0.35863   0.93720   0.18700   1.000
    O118    O    0.25260   0.81005   0.19389   1.000
    O119    O    0.43330   0.81181   0.19765   1.000
    O120    O    0.71759   0.55919   0.19804   1.000
    O121    O    0.56668   0.71056   0.19957   1.000
    O122    O    0.13092   0.78589   0.22531   1.000
    O123    O    0.92560   0.38627   0.22633   1.000
    O124    O    0.71248   0.38623   0.23096   1.000
    O125    O    0.52476   0.78748   0.23370   1.000
    O126    O    0.02481   0.28875   0.26636   1.000
    O127    O    0.21256   0.88703   0.26910   1.000
    O128    O    0.63098   0.28660   0.27474   1.000
    O129    O    0.42569   0.88686   0.27372   1.000
    O130    O    0.06714   0.21345   0.30048   1.000
    O131    O    0.93349   0.31442   0.30242   1.000
    O132    O    0.21796   0.06171   0.30200   1.000
    O133    O    0.43345   0.05447   0.30716   1.000
    O134    O    0.29355   0.86754   0.32059   1.000
    O135    O    0.75278   0.31231   0.30617   1.000
    O136    O    0.60193   0.20410   0.30939   1.000
    O137    O    0.85850   0.44004   0.31310   1.000
    O138    O    0.85689   0.34416   0.33547   1.000
    O139    O    0.41727   0.59750   0.33504   1.000
    O140    O    0.31901   0.68750   0.34993   1.000
    O141    O    0.20563   0.78233   0.36756   1.000
    O142    O    0.35548   0.53563   0.36836   1.000
    O143    O    0.10183   0.86138   0.38408   1.000
    O144    O    0.38197   0.39930   0.38509   1.000
    O145    O    0.12542   0.72852   0.40433   1.000
    O146    O    0.27683   0.47840   0.40530   1.000
    O147    O    0.16014   0.57645   0.42363   1.000
    O148    O    0.05579   0.67482   0.43712   1.000
    O149    O    0.19635   0.41531   0.44378   1.000
    O150    O    0.17546   0.26467   0.45517   1.000
    O151    O    0.11157   0.34627   0.47298   1.000
    O152    O    0.26803   0.34750   0.48159   1.000
    O153    O    0.42547   0.35743   0.49009   1.000
    O154    O    0.35606   0.42675   0.50957   1.000
    O155    O    0.34549   0.26920   0.51768   1.000
    O156    O    0.34355   0.11262   0.52590   1.000
    O157    O    0.26197   0.17651   0.54369   1.000
    O158    O    0.41263   0.19667   0.55545   1.000
    O159    O    0.67302   0.05719   0.56191   1.000
    O160    O    0.57402   0.16038   0.57568   1.000
    O161    O    0.47529   0.27569   0.59434   1.000
    O162    O    0.72657   0.12589   0.59500   1.000
    O163    O    0.39564   0.37957   0.61486   1.000
    O164    O    0.53234   0.35322   0.63162   1.000
    O165    O    0.85989   0.10247   0.61526   1.000
    O166    O    0.78028   0.20511   0.63209   1.000
    O167    O    0.34251   0.85589   0.66459   1.000
    O168    O    0.68477   0.31713   0.65005   1.000
    O169    O    0.59411   0.41417   0.66521   1.000
    O170    O    0.86617   0.29284   0.67932   1.000
    O171    O    0.20303   0.60153   0.69051   1.000
    O172    O    0.05351   0.43308   0.69276   1.000
    O173    O    0.43891   0.85805   0.68699   1.000
    O174    O    0.31135   0.75238   0.69382   1.000
    O175    O    0.31345   0.93312   0.69767   1.000
    O176    O    0.06122   0.21787   0.69801   1.000
    O177    O    0.21284   0.06707   0.69961   1.000
    O178    O    0.28651   0.63102   0.72515   1.000
    O179    O    0.88690   0.42545   0.72630   1.000
    O180    O    0.88656   0.21247   0.73074   1.000
    O181    O    0.28824   0.02480   0.73378   1.000
    O182    O    0.78847   0.52472   0.76637   1.000
    O183    O    0.38698   0.71266   0.76899   1.000
    O184    O    0.78614   0.13108   0.77444   1.000
    O185    O    0.38661   0.92571   0.77376   1.000
    O186    O    0.71233   0.56715   0.80051   1.000
    O187    O    0.81343   0.43367   0.80235   1.000
    O188    O    0.56074   0.71799   0.80202   1.000
    O189    O    0.55409   0.93349   0.80706   1.000
    O190    O    0.36619   0.79370   0.82055   1.000
    O191    O    0.81144   0.25301   0.80598   1.000
    O192    O    0.70369   0.10199   0.80918   1.000
    O193    O    0.93895   0.35892   0.81297   1.000
    O194    O    0.84257   0.35734   0.83533   1.000
    O195    O    0.09597   0.91827   0.83538   1.000
    O196    O    0.18532   0.81935   0.84999   1.000
    O197    O    0.27934   0.70520   0.86730   1.000
    O198    O    0.03277   0.85538   0.86846   1.000
    O199    O    0.35759   0.60065   0.88352   1.000
    O200    O    0.89579   0.88145   0.88518   1.000
    O201    O    0.22403   0.62372   0.90377   1.000
    O202    O    0.97401   0.77544   0.90509   1.000
    O203    O    0.07125   0.65795   0.92310   1.000
    O204    O    0.16900   0.55294   0.93629   1.000
    O205    O    0.90951   0.69366   0.94330   1.000
    O206    O    0.75839   0.67295   0.95465   1.000
    O207    O    0.83931   0.60785   0.97217   1.000
    O208    O    0.84133   0.76399   0.98136   1.000
    O209    O    0.85115   0.92097   0.99041   1.000
loop_
    _geom_bond_atom_site_label_1
    _geom_bond_atom_site_label_2
    _geom_bond_distance
    _geom_bond_site_symmetry_2
    _ccdc_geom_bond_type
    C37    O98       0.55083      .   S
    C75    O98       0.55083      .   S
    C30    O99       0.55102      .   S
    C77    O99       0.55102  1_556   S
    C75    O100      0.55109      .   S
    C38    O100      0.55109      .   S
    C75    O101      0.75322      .   S
    C74    O101      0.75322      .   S
    C75    O102      0.76976      .   S
    C77    O102      0.76976  1_556   S
    C36    O103      0.54576      .   S
    C73    O103      0.54576      .   S
    C74    O104      0.70111  1_565   S
    C73    O104      0.70111      .   S
    C74    O105      0.69975      .   S
    C70    O105      0.69975      .   S
    C73    O106      0.69611      .   S
    C72    O106      0.69611      .   S
    C70    O107      0.54505      .   S
    C33    O107      0.54505      .   S
    C70    O108      0.69446  1_565   S
    C71    O108      0.69446      .   S
    C72    O109      0.54553      .   S
    C35    O109      0.54553      .   S
    C72    O110      0.67432      .   S
    C81    O110      0.67432      .   S
    C4     O111      0.54656      .   S
    C41    O111      0.54656      .   S
    C71    O112      0.67464      .   S
    C81    O112      0.67464      .   S
    C71    O113      0.54474      .   S
    C34    O113      0.54474      .   S
    C81    O114      1.05305      .   S
    C3     O114      1.05305      .   S
    C83    O115      0.63673      .   S
    C40    O115      0.63673      .   S
    C83    O116      1.03161  1_455   S
    C3     O116      1.03161      .   S
    C41    O117      0.55026      .   S
    C5     O117      0.55026  1_545   S
    C41    O118      0.76134      .   S
    C40    O118      0.76134      .   S
    C41    O119      0.76564      .   S
    C42    O119      0.76564      .   S
    C85    O120      1.02153      .   S
    C3     O120      1.02153      .   S
    C85    O121      0.63611      .   S
    C42    O121      0.63611      .   S
    C40    O122      0.63551      .   S
    C82    O122      0.63551      .   S
    C3     O123      1.07193      .   S
    C96    O123      1.07193  1_455   S
    C3     O124      1.04896      .   S
    C94    O124      1.04896      .   S
    C42    O125      0.63403      .   S
    C84    O125      0.63403      .   S
    C96    O126      0.63419      .   S
    C69    O126      0.63419      .   S
    C82    O127      1.04677      .   S
    C0     O127      1.04677      .   S
    C94    O128      0.63538      .   S
    C67    O128      0.63538      .   S
    C84    O129      1.07300      .   S
    C0     O129      1.07300      .   S
    C69    O130      0.63608      .   S
    C97    O130      0.63608      .   S
    C69    O131      0.76569  1_455   S
    C68    O131      0.76569      .   S
    C0     O132      1.02279  1_565   S
    C97    O132      1.02279      .   S
    C0     O133      1.03083  1_565   S
    C95    O133      1.03083      .   S
    C0     O134      1.05211      .   S
    C78    O134      1.05211      .   S
    C67    O135      0.76149      .   S
    C68    O135      0.76149      .   S
    C67    O136      0.63691      .   S
    C95    O136      0.63691      .   S
    C32    O137      0.55025      .   S
    C68    O137      0.55025      .   S
    C68    O138      0.54660      .   S
    C31    O138      0.54660      .   S
    C7     O139      0.54475      .   S
    C44    O139      0.54475      .   S
    C78    O140      0.67464      .   S
    C44    O140      0.67464      .   S
    C78    O141      0.67427      .   S
    C45    O141      0.67427      .   S
    C44    O142      0.69432      .   S
    C43    O142      0.69432      .   S
    C8     O143      0.54554      .   S
    C45    O143      0.54554      .   S
    C6     O144      0.54507      .   S
    C43    O144      0.54507      .   S
    C45    O145      0.69614      .   S
    C46    O145      0.69614      .   S
    C43    O146      0.69982      .   S
    C47    O146      0.69982      .   S
    C46    O147      0.70108      .   S
    C47    O147      0.70108      .   S
    C46    O148      0.54575      .   S
    C9     O148      0.54575      .   S
    C47    O149      0.75305      .   S
    C48    O149      0.75305      .   S
    C11    O150      0.55111      .   S
    C48    O150      0.55111      .   S
    C48    O151      0.55080      .   S
    C10    O151      0.55080      .   S
    C48    O152      0.76965      .   S
    C76    O152      0.76965      .   S
    C21    O153      0.55086      .   S
    C76    O153      0.55086      .   S
    C76    O154      0.55086      .   S
    C12    O154      0.55086      .   S
    C76    O155      0.76968      .   S
    C57    O155      0.76968      .   S
    C19    O156      0.55080      .   S
    C57    O156      0.55080      .   S
    C57    O157      0.55110      .   S
    C20    O157      0.55110      .   S
    C57    O158      0.75316      .   S
    C56    O158      0.75316      .   S
    C18    O159      0.54576      .   S
    C55    O159      0.54576      .   S
    C56    O160      0.70113      .   S
    C55    O160      0.70113      .   S
    C56    O161      0.69977      .   S
    C52    O161      0.69977      .   S
    C55    O162      0.69614      .   S
    C54    O162      0.69614      .   S
    C52    O163      0.54507      .   S
    C15    O163      0.54507      .   S
    C52    O164      0.69441      .   S
    C53    O164      0.69441      .   S
    C54    O165      0.54554      .   S
    C17    O165      0.54554      .   S
    C54    O166      0.67428      .   S
    C79    O166      0.67428      .   S
    C22    O167      0.54661      .   S
    C59    O167      0.54661      .   S
    C53    O168      0.67464      .   S
    C79    O168      0.67464      .   S
    C53    O169      0.54473      .   S
    C16    O169      0.54473      .   S
    C79    O170      1.05322      .   S
    C1     O170      1.05322      .   S
    C91    O171      0.63666      .   S
    C58    O171      0.63666      .   S
    C91    O172      1.03223      .   S
    C1     O172      1.03223  1_655   S
    C59    O173      0.55028      .   S
    C23    O173      0.55028      .   S
    C59    O174      0.76135      .   S
    C58    O174      0.76135      .   S
    C59    O175      0.76580      .   S
    C60    O175      0.76580  1_545   S
    C93    O176      1.02195      .   S
    C1     O176      1.02195  1_655   S
    C93    O177      0.63621      .   S
    C60    O177      0.63621      .   S
    C58    O178      0.63561      .   S
    C90    O178      0.63561      .   S
    C1     O179      1.07095      .   S
    C88    O179      1.07095      .   S
    C1     O180      1.04908      .   S
    C86    O180      1.04908      .   S
    C60    O181      0.63400      .   S
    C92    O181      0.63400      .   S
    C88    O182      0.63416      .   S
    C51    O182      0.63416      .   S
    C90    O183      1.04618      .   S
    C2     O183      1.04618      .   S
    C86    O184      0.63540      .   S
    C49    O184      0.63540      .   S
    C92    O185      1.07437  1_545   S
    C2     O185      1.07437      .   S
    C51    O186      0.63599      .   S
    C89    O186      0.63599      .   S
    C51    O187      0.76558      .   S
    C50    O187      0.76558      .   S
    C2     O188      1.02295      .   S
    C89    O188      1.02295      .   S
    C2     O189      1.02997      .   S
    C87    O189      1.02997  1_545   S
    C2     O190      1.05299      .   S
    C80    O190      1.05299      .   S
    C49    O191      0.76152      .   S
    C50    O191      0.76152      .   S
    C49    O192      0.63701      .   S
    C87    O192      0.63701      .   S
    C14    O193      0.55026  1_455   S
    C50    O193      0.55026      .   S
    C50    O194      0.54657      .   S
    C13    O194      0.54657      .   S
    C25    O195      0.54475      .   S
    C62    O195      0.54475      .   S
    C80    O196      0.67468      .   S
    C62    O196      0.67468      .   S
    C80    O197      0.67432      .   S
    C63    O197      0.67432      .   S
    C62    O198      0.69449      .   S
    C61    O198      0.69449  1_655   S
    C26    O199      0.54553      .   S
    C63    O199      0.54553      .   S
    C24    O200      0.54506      .   S
    C61    O200      0.54506      .   S
    C63    O201      0.69611      .   S
    C64    O201      0.69611      .   S
    C61    O202      0.69987      .   S
    C65    O202      0.69987      .   S
    C64    O203      0.70110      .   S
    C65    O203      0.70110  1_655   S
    C64    O204      0.54576      .   S
    C27    O204      0.54576      .   S
    C65    O205      0.75325      .   S
    C66    O205      0.75325      .   S
    C29    O206      0.55108      .   S
    C66    O206      0.55108      .   S
    C66    O207      0.55081      .   S
    C28    O207      0.55081      .   S
    C66    O208      0.76958      .   S
    C77    O208      0.76958      .   S
    C39    O209      0.55091      .   S
    C77    O209      0.55091      .   S
