# CIF file generated by openbabel 2.4.90, see http://openbabel.sf.net
data_I
_chemical_name_common ''
_cell_length_a 12.772
_cell_length_b 15.1
_cell_length_c 19.445
_cell_angle_alpha 90.08
_cell_angle_beta 90.028
_cell_angle_gamma 89.993
_space_group_name_H-M_alt 'P 1'
_space_group_name_Hall 'P 1'
loop_
    _symmetry_equiv_pos_as_xyz
    x,y,z
loop_
    _atom_site_label
    _atom_site_type_symbol
    _atom_site_fract_x
    _atom_site_fract_y
    _atom_site_fract_z
    _atom_site_occupancy
    Zr0     Zr   0.67959   0.76798   0.32955   1.000
    Zr1     Zr   0.32050   0.26776   0.17048   1.000
    Zr2     Zr   0.82011   0.23227   0.82897   1.000
    Zr3     Zr   0.17999   0.73200   0.67104   1.000
    Zr4     Zr   0.32037   0.23206   0.67044   1.000
    Zr5     Zr   0.67946   0.73229   0.82951   1.000
    Zr6     Zr   0.17986   0.76777   0.17100   1.000
    Zr7     Zr   0.81997   0.26804   0.32894   1.000
    N8      N    0.47255   0.78160   0.51576   1.000
    O9      O    0.55212   0.77782   0.44869   1.000
    O10     O    0.36876   0.75250   0.58460   1.000
    N11     N    0.99739   0.47051   0.76001   1.000
    O12     O    0.93028   0.38321   0.78471   1.000
    N13     N    0.49960   0.52982   0.25981   1.000
    O14     O    0.56810   0.61708   0.28481   1.000
    N15     N    0.96949   0.71814   0.48486   1.000
    O16     O    0.05082   0.72193   0.55189   1.000
    O17     O    0.86682   0.74751   0.41624   1.000
    N18     N    0.50044   0.02975   0.24017   1.000
    O19     O    0.43198   0.11696   0.21517   1.000
    N20     N    0.99978   0.52952   0.23995   1.000
    O21     O    0.06829   0.61683   0.21526   1.000
    N22     N    0.52742   0.28158   0.98419   1.000
    O23     O    0.63126   0.25257   0.91535   1.000
    O24     O    0.44788   0.27773   0.05129   1.000
    N25     N    0.02706   0.28191   0.51509   1.000
    O26     O    0.13145   0.25252   0.58372   1.000
    O27     O    0.94744   0.27811   0.44808   1.000
    N28     N    0.50038   0.47022   0.74018   1.000
    O29     O    0.43187   0.38296   0.71518   1.000
    N30     N    0.52743   0.21844   0.48423   1.000
    O31     O    0.63121   0.24754   0.41538   1.000
    O32     O    0.44785   0.22222   0.55130   1.000
    N33     N    0.99740   0.02959   0.26005   1.000
    O34     O    0.93022   0.11696   0.28471   1.000
    N35     N    0.49953   0.96880   0.75981   1.000
    O36     O    0.56799   0.88233   0.78481   1.000
    N37     N    0.99978   0.96895   0.73994   1.000
    O38     O    0.06836   0.88233   0.71527   1.000
    N39     N    0.47255   0.71846   0.01574   1.000
    O40     O    0.55209   0.72232   0.94867   1.000
    O41     O    0.36871   0.74747   0.08461   1.000
    N42     N    0.96950   0.78181   0.98475   1.000
    O43     O    0.86681   0.75259   0.91606   1.000
    O44     O    0.05076   0.77793   0.05181   1.000
    N45     N    0.02706   0.21823   0.01522   1.000
    O46     O    0.94750   0.22211   0.94817   1.000
    O47     O    0.13146   0.24746   0.08391   1.000
    O48     O    0.42501   0.42859   0.22702   1.000
    O49     O    0.92504   0.42841   0.27252   1.000
    O50     O    0.07353   0.92837   0.22748   1.000
    O51     O    0.07353   0.57163   0.72744   1.000
    O52     O    0.92504   0.07092   0.77251   1.000
    O53     O    0.57496   0.57145   0.77297   1.000
    O54     O    0.57501   0.92861   0.27298   1.000
    O55     O    0.42496   0.07069   0.72701   1.000
loop_
    _geom_bond_atom_site_label_1
    _geom_bond_atom_site_label_2
    _geom_bond_distance
    _geom_bond_site_symmetry_2
    _ccdc_geom_bond_type
    N8     O9        1.65468      .   S
    Zr0    O9        2.83589      .   S
    N8     O10       1.93537      .   S
    Zr3    O10       2.95622      .   S
    N11    O12       1.64495      .   S
    Zr2    O12       2.81478      .   S
    N13    O14       1.65414      .   S
    Zr0    O14       2.82317      .   S
    N15    O16       1.66709  1_655   S
    Zr3    O16       2.84750      .   S
    N15    O17       1.92276      .   S
    Zr0    O17       2.94153      .   S
    N18    O19       1.65420      .   S
    Zr1    O19       2.82321      .   S
    N20    O21       1.65430  1_655   S
    Zr6    O21       2.82376      .   S
    N22    O23       1.93468      .   S
    Zr2    O23       2.95550      .   S
    N22    O24       1.65503  1_556   S
    Zr1    O24       2.83647      .   S
    N25    O26       1.93781      .   S
    Zr4    O26       2.95952      .   S
    N25    O27       1.65345  1_455   S
    Zr7    O27       2.83469      .   S
    N28    O29       1.65414      .   S
    Zr4    O29       2.82318      .   S
    N30    O31       1.93537      .   S
    Zr7    O31       2.95618      .   S
    N30    O32       1.65474      .   S
    Zr4    O32       2.83600      .   S
    N33    O34       1.64477      .   S
    Zr7    O34       2.81449      .   S
    N35    O36       1.64523      .   S
    Zr5    O36       2.81414      .   S
    N37    O38       1.64508  1_655   S
    Zr3    O38       2.81425      .   S
    N39    O40       1.65457  1_554   S
    Zr5    O40       2.83600      .   S
    N39    O41       1.93500      .   S
    Zr6    O41       2.95565      .   S
    N42    O43       1.92236      .   S
    Zr5    O43       2.94046      .   S
    N42    O44       1.66735  1_656   S
    Zr6    O44       2.84802      .   S
    N45    O46       1.65378  1_454   S
    Zr2    O46       2.83552      .   S
    N45    O47       1.93738      .   S
    Zr1    O47       2.95836      .   S
    Zr1    O48       2.97999      .   S
    N13    O48       1.90985      .   S
    Zr7    O49       2.97963      .   S
    N20    O49       1.90973      .   S
    Zr6    O50       2.98731      .   S
    N33    O50       1.91838  1_645   S
    Zr3    O51       2.98760      .   S
    N11    O51       1.91871  1_655   S
    Zr2    O52       2.98844      .   S
    N37    O52       1.91849  1_565   S
    Zr5    O53       2.98003      .   S
    N28    O53       1.90987      .   S
    Zr0    O54       2.98028      .   S
    N18    O54       1.91002  1_545   S
    Zr4    O55       2.98947      .   S
    N35    O55       1.91903  1_565   S
