# CIF file generated by openbabel 2.4.90, see http://openbabel.sf.net
data_I
_chemical_name_common ''
_cell_length_a 12.772
_cell_length_b 15.1
_cell_length_c 19.445
_cell_angle_alpha 90.08
_cell_angle_beta 90.028
_cell_angle_gamma 89.993
_space_group_name_H-M_alt 'P 1'
_space_group_name_Hall 'P 1'
loop_
    _symmetry_equiv_pos_as_xyz
    x,y,z
loop_
    _atom_site_label
    _atom_site_type_symbol
    _atom_site_fract_x
    _atom_site_fract_y
    _atom_site_fract_z
    _atom_site_occupancy
    Zr0     Zr   0.67959   0.76798   0.32955   1.000
    Zr1     Zr   0.32050   0.26776   0.17048   1.000
    Zr2     Zr   0.82011   0.23227   0.82897   1.000
    Zr3     Zr   0.17999   0.73200   0.67104   1.000
    Zr4     Zr   0.32037   0.23206   0.67044   1.000
    Zr5     Zr   0.67946   0.73229   0.82951   1.000
    Zr6     Zr   0.17986   0.76777   0.17100   1.000
    Zr7     Zr   0.81997   0.26804   0.32894   1.000
    N8      N    0.47255   0.78160   0.51576   1.000
    O9      O    0.55212   0.77782   0.44869   1.000
    O10     O    0.36876   0.75250   0.58460   1.000
    N11     N    0.99739   0.47051   0.76001   1.000
    O12     O    0.08333   0.56079   0.71766   1.000
    O13     O    0.93028   0.38321   0.78471   1.000
    O14     O    0.06372   0.58247   0.73722   1.000
    N15     N    0.49960   0.52982   0.25981   1.000
    O16     O    0.41562   0.43936   0.21705   1.000
    O17     O    0.56810   0.61708   0.28481   1.000
    O18     O    0.43441   0.41782   0.23700   1.000
    N19     N    0.96949   0.71814   0.48486   1.000
    O20     O    0.05082   0.72193   0.55189   1.000
    O21     O    0.86682   0.74751   0.41624   1.000
    N22     N    0.50044   0.02975   0.24017   1.000
    O23     O    0.43198   0.11696   0.21517   1.000
    O24     O    0.58439   0.93940   0.28297   1.000
    O25     O    0.56563   0.91782   0.26299   1.000
    N26     N    0.99978   0.52952   0.23995   1.000
    O27     O    0.06829   0.61683   0.21526   1.000
    O28     O    0.93485   0.41757   0.26275   1.000
    O29     O    0.91522   0.43925   0.28229   1.000
    N30     N    0.52742   0.28158   0.98419   1.000
    O31     O    0.63126   0.25257   0.91535   1.000
    O32     O    0.44788   0.27773   0.05129   1.000
    N33     N    0.02706   0.28191   0.51509   1.000
    O34     O    0.13145   0.25252   0.58372   1.000
    O35     O    0.94744   0.27811   0.44808   1.000
    N36     N    0.50038   0.47022   0.74018   1.000
    O37     O    0.43187   0.38296   0.71518   1.000
    O38     O    0.56556   0.58222   0.76299   1.000
    O39     O    0.58435   0.56068   0.78294   1.000
    N40     N    0.52743   0.21844   0.48423   1.000
    O41     O    0.63121   0.24754   0.41538   1.000
    O42     O    0.44785   0.22222   0.55130   1.000
    N43     N    0.99740   0.02959   0.26005   1.000
    O44     O    0.08339   0.93920   0.21774   1.000
    O45     O    0.06367   0.91754   0.23721   1.000
    O46     O    0.93022   0.11696   0.28471   1.000
    N47     N    0.49953   0.96880   0.75981   1.000
    O48     O    0.43434   0.08148   0.73700   1.000
    O49     O    0.41558   0.05990   0.71702   1.000
    O50     O    0.56799   0.88233   0.78481   1.000
    N51     N    0.99978   0.96895   0.73994   1.000
    O52     O    0.06836   0.88233   0.71527   1.000
    O53     O    0.93490   0.08174   0.76278   1.000
    O54     O    0.91518   0.06009   0.78224   1.000
    N55     N    0.47255   0.71846   0.01574   1.000
    O56     O    0.55209   0.72232   0.94867   1.000
    O57     O    0.36871   0.74747   0.08461   1.000
    N58     N    0.96950   0.78181   0.98475   1.000
    O59     O    0.86681   0.75259   0.91606   1.000
    O60     O    0.05076   0.77793   0.05181   1.000
    N61     N    0.02706   0.21823   0.01522   1.000
    O62     O    0.94750   0.22211   0.94817   1.000
    O63     O    0.13146   0.24746   0.08391   1.000
loop_
    _geom_bond_atom_site_label_1
    _geom_bond_atom_site_label_2
    _geom_bond_distance
    _geom_bond_site_symmetry_2
    _ccdc_geom_bond_type
    N8     O9        1.65468      .   S
    Zr0    O9        2.83589      .   S
    N8     O10       1.93537      .   S
    Zr3    O10       2.95622      .   S
    N11    O12       1.93526  1_655   S
    Zr3    O12       3.00640      .   S
    N11    O13       1.64495      .   S
    Zr2    O13       2.81478      .   S
    N11    O14       1.94287  1_655   S
    Zr3    O14       2.99501      .   S
    N15    O16       1.92460      .   S
    Zr1    O16       3.00049      .   S
    N15    O17       1.65414      .   S
    Zr0    O17       2.82317      .   S
    N15    O18       1.93598      .   S
    Zr1    O18       2.98576      .   S
    N19    O20       1.66709  1_655   S
    Zr3    O20       2.84750      .   S
    N19    O21       1.92276      .   S
    Zr0    O21       2.94153      .   S
    N22    O23       1.65420      .   S
    Zr1    O23       2.82321      .   S
    N22    O24       1.92494  1_545   S
    Zr0    O24       3.00052      .   S
    N22    O25       1.93597  1_545   S
    Zr0    O25       2.98632      .   S
    N26    O27       1.65430  1_655   S
    Zr6    O27       2.82376      .   S
    N26    O28       1.93516      .   S
    Zr7    O28       2.98633      .   S
    N26    O29       1.92519      .   S
    Zr7    O29       2.99921      .   S
    N30    O31       1.93468      .   S
    Zr2    O31       2.95550      .   S
    N30    O32       1.65503  1_556   S
    Zr1    O32       2.83647      .   S
    N33    O34       1.93781      .   S
    Zr4    O34       2.95952      .   S
    N33    O35       1.65345  1_455   S
    Zr7    O35       2.83469      .   S
    N36    O37       1.65414      .   S
    Zr4    O37       2.82318      .   S
    N36    O38       1.93601      .   S
    Zr5    O38       2.98578      .   S
    N36    O39       1.92461      .   S
    Zr5    O39       3.00056      .   S
    N40    O41       1.93537      .   S
    Zr7    O41       2.95618      .   S
    N40    O42       1.65474      .   S
    Zr4    O42       2.83600      .   S
    N43    O44       1.93479  1_645   S
    Zr6    O44       3.00633      .   S
    N43    O45       1.94267  1_645   S
    Zr6    O45       2.99451      .   S
    N43    O46       1.64477      .   S
    Zr7    O46       2.81449      .   S
    N47    O48       1.94582  1_565   S
    Zr4    O48       2.99488      .   S
    N47    O49       1.93293  1_565   S
    Zr4    O49       3.01025      .   S
    N47    O50       1.64523      .   S
    Zr5    O50       2.81414      .   S
    N51    O52       1.64508  1_655   S
    Zr3    O52       2.81425      .   S
    N51    O53       1.94491  1_565   S
    Zr2    O53       2.99422      .   S
    N51    O54       1.93275  1_565   S
    Zr2    O54       3.00886      .   S
    N55    O56       1.65457  1_554   S
    Zr5    O56       2.83600      .   S
    N55    O57       1.93500      .   S
    Zr6    O57       2.95565      .   S
    N58    O59       1.92236      .   S
    Zr5    O59       2.94046      .   S
    N58    O60       1.66735  1_656   S
    Zr6    O60       2.84802      .   S
    N61    O62       1.65378  1_454   S
    Zr2    O62       2.83552      .   S
    N61    O63       1.93738      .   S
    Zr1    O63       2.95836      .   S
