# CIF file generated by openbabel 2.4.90, see http://openbabel.sf.net
data_I
_chemical_name_common ''
_cell_length_a 18.402
_cell_length_b 18.418
_cell_length_c 18.412
_cell_angle_alpha 60.334
_cell_angle_beta 60.264
_cell_angle_gamma 60.268
_space_group_name_H-M_alt 'P 1'
_space_group_name_Hall 'P 1'
loop_
    _symmetry_equiv_pos_as_xyz
    x,y,z
loop_
    _atom_site_label
    _atom_site_type_symbol
    _atom_site_fract_x
    _atom_site_fract_y
    _atom_site_fract_z
    _atom_site_occupancy
    H0      H    0.55029   0.06790   0.33585   1.000
    H1      H    0.54621   0.83587   0.56787   1.000
    H2      H    0.54974   0.06732   0.04822   1.000
    H3      H    0.54657   0.83592   0.04779   1.000
    H4      H    0.06832   0.83587   0.04800   1.000
    H5      H    0.93164   0.44988   0.66414   1.000
    H6      H    0.16439   0.45357   0.43219   1.000
    H7      H    0.93238   0.45038   0.95200   1.000
    H8      H    0.16433   0.45314   0.95206   1.000
    H9      H    0.16438   0.93214   0.95126   1.000
    H10     H    0.44972   0.93209   0.66416   1.000
    H11     H    0.45380   0.16412   0.43214   1.000
    H12     H    0.45026   0.93268   0.95179   1.000
    H13     H    0.45344   0.16408   0.95222   1.000
    H14     H    0.93169   0.16412   0.95160   1.000
    H15     H    0.06836   0.55012   0.33586   1.000
    H16     H    0.83562   0.54642   0.56782   1.000
    H17     H    0.06763   0.54961   0.04801   1.000
    H18     H    0.83567   0.54685   0.04794   1.000
    H19     H    0.83562   0.06785   0.04875   1.000
    H20     H    0.54725   0.54740   0.33585   1.000
    H21     H    0.54877   0.54888   0.56762   1.000
    H22     H    0.45275   0.45259   0.66416   1.000
    H23     H    0.45123   0.45112   0.43239   1.000
    C24     C    0.61132   0.88907   0.38903   1.000
    C25     C    0.55376   0.94638   0.44636   1.000
    C26     C    0.52786   0.03894   0.40776   1.000
    C27     C    0.52557   0.90777   0.53893   1.000
    C28     C    0.61104   0.88853   0.11086   1.000
    C29     C    0.55373   0.94605   0.05353   1.000
    C30     C    0.52755   0.03860   0.02670   1.000
    C31     C    0.52578   0.90779   0.02650   1.000
    C32     C    0.03916   0.90777   0.02680   1.000
    C33     C    0.11078   0.38860   0.61104   1.000
    C34     C    0.05352   0.44615   0.55369   1.000
    C35     C    0.96082   0.47224   0.59224   1.000
    C36     C    0.09237   0.47432   0.46112   1.000
    C37     C    0.11144   0.38877   0.88919   1.000
    C38     C    0.05391   0.44617   0.94652   1.000
    C39     C    0.96123   0.47252   0.97341   1.000
    C40     C    0.09234   0.47406   0.97342   1.000
    C41     C    0.09236   0.96108   0.97302   1.000
    C42     C    0.38869   0.11092   0.61098   1.000
    C43     C    0.44625   0.05361   0.55365   1.000
    C44     C    0.47215   0.96105   0.59225   1.000
    C45     C    0.47444   0.09222   0.46108   1.000
    C46     C    0.38897   0.11147   0.88915   1.000
    C47     C    0.44628   0.05395   0.94648   1.000
    C48     C    0.47245   0.96139   0.97329   1.000
    C49     C    0.47422   0.09220   0.97351   1.000
    C50     C    0.96084   0.09223   0.97321   1.000
    C51     C    0.88923   0.61140   0.38897   1.000
    C52     C    0.94648   0.55384   0.44632   1.000
    C53     C    0.03918   0.52775   0.40777   1.000
    C54     C    0.90764   0.52567   0.53889   1.000
    C55     C    0.88857   0.61122   0.11082   1.000
    C56     C    0.94610   0.55383   0.05349   1.000
    C57     C    0.03877   0.52747   0.02660   1.000
    C58     C    0.90767   0.52594   0.02659   1.000
    C59     C    0.90764   0.03891   0.02699   1.000
    C60     C    0.61080   0.61107   0.38873   1.000
    C61     C    0.55354   0.55371   0.44618   1.000
    C62     C    0.52620   0.52625   0.40776   1.000
    C63     C    0.52704   0.52706   0.53877   1.000
    C64     C    0.88920   0.88903   0.11187   1.000
    C65     C    0.94647   0.94634   0.05417   1.000
    C66     C    0.38921   0.38892   0.61128   1.000
    C67     C    0.44647   0.44629   0.55383   1.000
    C68     C    0.47381   0.47375   0.59225   1.000
    C69     C    0.47297   0.47293   0.46124   1.000
    C70     C    0.11080   0.11096   0.88813   1.000
    C71     C    0.05354   0.05365   0.94584   1.000
    O72     O    0.63343   0.80541   0.42850   1.000
    O73     O    0.63348   0.92855   0.30534   1.000
    O74     O    0.63247   0.80485   0.13297   1.000
    O75     O    0.63385   0.92795   0.13290   1.000
    O76     O    0.92880   0.80537   0.13417   1.000
    O77     O    0.19459   0.36649   0.57155   1.000
    O78     O    0.07115   0.36633   0.69474   1.000
    O79     O    0.19525   0.36714   0.86713   1.000
    O80     O    0.07189   0.36610   0.86710   1.000
    O81     O    0.19461   0.07148   0.86591   1.000
    O82     O    0.36657   0.19458   0.57151   1.000
    O83     O    0.36652   0.07145   0.69467   1.000
    O84     O    0.36754   0.19514   0.86704   1.000
    O85     O    0.36616   0.07204   0.86711   1.000
    O86     O    0.07120   0.19463   0.86584   1.000
    O87     O    0.80541   0.63350   0.42846   1.000
    O88     O    0.92886   0.63366   0.30527   1.000
    O89     O    0.80476   0.63285   0.13288   1.000
    O90     O    0.92812   0.63389   0.13286   1.000
    O91     O    0.80540   0.92852   0.13410   1.000
    O92     O    0.74995   0.74990   0.24991   1.000
    O93     O    0.63324   0.63337   0.42825   1.000
    O94     O    0.63249   0.63301   0.30501   1.000
    O95     O    0.25006   0.25009   0.75010   1.000
    O96     O    0.36676   0.36662   0.57176   1.000
    O97     O    0.36751   0.36698   0.69500   1.000
loop_
    _geom_bond_atom_site_label_1
    _geom_bond_atom_site_label_2
    _geom_bond_distance
    _geom_bond_site_symmetry_2
    _ccdc_geom_bond_type
    C31    H3        1.08864      .   S
    C31    C29       1.40319      .   S
    C31    C48       1.39034  1_554   S
    C58    H18       1.08864      .   S
    C58    C56       1.40318      .   S
    C58    C39       1.39011  1_554   S
    C57    H17       1.08866      .   S
    C57    C56       1.40298  1_455   S
    C57    C40       1.39011  1_554   S
    C30    H2        1.08883      .   S
    C30    C29       1.40355  1_545   S
    C30    C49       1.39009  1_554   S
    C32    H4        1.08857      .   S
    C32    C65       1.40283  1_455   S
    C32    C41       1.39022  1_554   S
    C59    H19       1.08860      .   S
    C59    C65       1.40336  1_545   S
    C59    C50       1.39022  1_554   S
    C56    C55       1.49611      .   S
    C29    C28       1.49601      .   S
    C65    C64       1.49536      .   S
    C55    O90       1.27703      .   S
    C55    O89       1.27730      .   S
    C28    O75       1.27710      .   S
    C28    O74       1.27735      .   S
    C64    O91       1.27703      .   S
    C64    O76       1.27707      .   S
    O94    C60       1.27739      .   S
    O88    C51       1.27715      .   S
    O73    C24       1.27711      .   S
    H20    C62       1.08863      .   S
    H0     C26       1.08859      .   S
    H15    C53       1.08870      .   S
    C60    O93       1.27703      .   S
    C60    C61       1.49599      .   S
    C51    O87       1.27711      .   S
    C51    C52       1.49554      .   S
    C24    O72       1.27709      .   S
    C24    C25       1.49503      .   S
    C26    C25       1.40332  1_545   S
    C26    C45       1.39018      .   S
    C62    C61       1.40320      .   S
    C62    C69       1.39041      .   S
    C53    C52       1.40287  1_455   S
    C53    C36       1.39023      .   S
    H11    C45       1.08859      .   S
    H6     C36       1.08860      .   S
    H23    C69       1.08859      .   S
    C61    C63       1.40335      .   S
    C52    C54       1.40323      .   S
    C25    C27       1.40315      .   S
    C45    C43       1.40315      .   S
    C36    C34       1.40323      .   S
    C69    C67       1.40335      .   S
    C63    H21       1.08860      .   S
    C63    C68       1.39041      .   S
    C54    H16       1.08860      .   S
    C54    C35       1.39023      .   S
    C27    H1        1.08859      .   S
    C27    C44       1.39019      .   S
    C43    C44       1.40331  1_545   S
    C43    C42       1.49504      .   S
    C34    C35       1.40287  1_455   S
    C34    C33       1.49554      .   S
    C67    C68       1.40322      .   S
    C67    C66       1.49597      .   S
    O82    C42       1.27708      .   S
    O77    C33       1.27711      .   S
    O96    C66       1.27705      .   S
    C35    H5        1.08856      .   S
    C44    H10       1.08859      .   S
    C68    H22       1.08863      .   S
    C42    O83       1.27711      .   S
    C33    O78       1.27715      .   S
    C66    O97       1.27739      .   S
    O86    C70       1.27707      .   S
    O81    C70       1.27701      .   S
    O84    C46       1.27735      .   S
    O80    C37       1.27775      .   S
    O85    C46       1.27704      .   S
    O79    C37       1.27730      .   S
    C70    C71       1.49536      .   S
    C46    C47       1.49605      .   S
    C37    C38       1.49609      .   S
    C71    C41       1.40336  1_545   S
    C71    C50       1.40283  1_455   S
    C47    C48       1.40360  1_545   S
    C47    C49       1.40315      .   S
    C38    C39       1.40299  1_455   S
    C38    C40       1.40320      .   S
    H9     C41       1.08859      .   S
    H14    C50       1.08861      .   S
    H12    C48       1.08853      .   S
    H7     C39       1.08868      .   S
    H8     C40       1.08862      .   S
    H13    C49       1.08864      .   S
