# CIF file generated by openbabel 2.4.90, see http://openbabel.sf.net
data_I
_chemical_name_common ''
_cell_length_a 18.402
_cell_length_b 18.418
_cell_length_c 18.412
_cell_angle_alpha 60.334
_cell_angle_beta 60.264
_cell_angle_gamma 60.268
_space_group_name_H-M_alt 'P 1'
_space_group_name_Hall 'P 1'
loop_
    _symmetry_equiv_pos_as_xyz
    x,y,z
loop_
    _atom_site_label
    _atom_site_type_symbol
    _atom_site_fract_x
    _atom_site_fract_y
    _atom_site_fract_z
    _atom_site_occupancy
    Zr0     Zr   0.88045   0.70690   0.20682   1.000
    Zr1     Zr   0.29314   0.11983   0.79320   1.000
    Zr2     Zr   0.11956   0.29309   0.79319   1.000
    Zr3     Zr   0.70687   0.88017   0.20681   1.000
    Zr4     Zr   0.70678   0.70681   0.38023   1.000
    Zr5     Zr   0.70592   0.70628   0.20627   1.000
    Zr6     Zr   0.29322   0.29318   0.61978   1.000
    Zr7     Zr   0.29409   0.29371   0.79370   1.000
    N8      N    0.50000   1.00000   0.50001   1.000
    O9      O    0.58509   0.95218   0.37804   1.000
    O10     O    0.58505   0.87805   0.45219   1.000
    O11     O    0.41495   0.12194   0.54783   1.000
    O12     O    0.41492   0.04782   0.62197   1.000
    N13     N    0.50000   0.50000   0.50001   1.000
    O14     O    0.58501   0.58504   0.45212   1.000
    O15     O    0.41500   0.41495   0.54789   1.000
    O16     O    0.58460   0.58482   0.37782   1.000
    O17     O    0.41540   0.41517   0.62218   1.000
    N18     N    0.50000   1.00000   0.00000   1.000
    O19     O    0.58518   0.95203   0.08493   1.000
    O20     O    0.41541   0.12221   0.91519   1.000
    O21     O    0.58460   0.87778   0.08481   1.000
    O22     O    0.41483   0.04797   0.91508   1.000
    N23     N    0.00000   1.00000   0.99998   1.000
    O24     O    0.95231   0.87806   0.08524   1.000
    O25     O    0.04769   0.12193   0.91475   1.000
    O26     O    0.87807   0.95217   0.08522   1.000
    O27     O    0.12194   0.04782   0.91477   1.000
    N28     N    0.00000   0.50000   0.00000   1.000
    O29     O    0.04786   0.41480   0.91507   1.000
    O30     O    0.95214   0.58520   0.08492   1.000
    O31     O    0.12233   0.41521   0.91521   1.000
    O32     O    0.87767   0.58478   0.08479   1.000
    N33     N    0.00000   0.50000   0.50000   1.000
    O34     O    0.95233   0.58514   0.37802   1.000
    O35     O    0.87805   0.58508   0.45217   1.000
    O36     O    0.12196   0.41492   0.54783   1.000
    O37     O    0.04768   0.41485   0.62198   1.000
    N38     N    0.74995   0.74990   0.24991   1.000
    O39     O    0.73916   0.73913   0.28249   1.000
    O40     O    0.78257   0.73915   0.23914   1.000
    O41     O    0.73894   0.73899   0.23900   1.000
    O42     O    0.73918   0.78247   0.23913   1.000
    N43     N    0.25006   0.25009   0.75010   1.000
    O44     O    0.26085   0.26087   0.71752   1.000
    O45     O    0.26083   0.21753   0.76087   1.000
    O46     O    0.21743   0.26084   0.76087   1.000
    O47     O    0.26106   0.26100   0.76100   1.000
loop_
    _geom_bond_atom_site_label_1
    _geom_bond_atom_site_label_2
    _geom_bond_distance
    _geom_bond_site_symmetry_2
    _ccdc_geom_bond_type
    N8     O9        2.31778      .   S
    Zr3    O9        3.30193      .   S
    N8     O10       2.31795      .   S
    Zr4    O10       3.30227      .   S
    N8     O11       2.31794  1_565   S
    Zr6    O11       3.30227      .   S
    N8     O12       2.31778  1_565   S
    Zr1    O12       3.30193      .   S
    N13    O14       2.31799      .   S
    Zr4    O14       3.30260      .   S
    N13    O15       2.31799      .   S
    Zr6    O15       3.30260      .   S
    N13    O16       2.32046      .   S
    Zr5    O16       3.30592      .   S
    N13    O17       2.32040      .   S
    Zr7    O17       3.30576      .   S
    N18    O19       2.31790      .   S
    Zr3    O19       3.30263      .   S
    N18    O20       2.32061  1_564   S
    Zr7    O20       3.30607      .   S
    N18    O21       2.32052      .   S
    Zr5    O21       3.30579      .   S
    N18    O22       2.31788  1_564   S
    Zr1    O22       3.30262      .   S
    N23    O24       2.31867  1_456   S
    Zr0    O24       3.30321      .   S
    N23    O25       2.31866  1_565   S
    Zr2    O25       3.30321      .   S
    N23    O26       2.31787  1_456   S
    Zr3    O26       3.30213      .   S
    N23    O27       2.31786  1_565   S
    Zr1    O27       3.30213      .   S
    N28    O29       2.31844  1_554   S
    Zr2    O29       3.30307      .   S
    N28    O30       2.31830  1_455   S
    Zr0    O30       3.30331      .   S
    N28    O31       2.32026  1_554   S
    Zr7    O31       3.30579      .   S
    N28    O32       2.32019  1_455   S
    Zr5    O32       3.30552      .   S
    N33    O34       2.31873  1_455   S
    Zr0    O34       3.30328      .   S
    N33    O35       2.31814  1_455   S
    Zr4    O35       3.30262      .   S
    N33    O36       2.31814      .   S
    Zr6    O36       3.30262      .   S
    N33    O37       2.31874      .   S
    Zr2    O37       3.30329      .   S
    N38    O39       0.49166      .   S
    Zr4    O39       1.47499      .   S
    N38    O40       0.49175      .   S
    Zr0    O40       1.47525      .   S
    N38    O41       0.49230      .   S
    Zr5    O41       1.47690      .   S
    N38    O42       0.49165      .   S
    Zr3    O42       1.47495      .   S
    N43    O44       0.49166      .   S
    Zr6    O44       1.47499      .   S
    N43    O45       0.49165      .   S
    Zr1    O45       1.47495      .   S
    N43    O46       0.49175      .   S
    Zr2    O46       1.47525      .   S
    N43    O47       0.49215      .   S
    Zr7    O47       1.47645      .   S
