# CIF file generated by openbabel 2.4.90, see http://openbabel.sf.net
data_I
_chemical_name_common ''
_cell_length_a 16.086
_cell_length_b 16.097
_cell_length_c 16.095
_cell_angle_alpha 90.221
_cell_angle_beta 89.991
_cell_angle_gamma 89.731
_space_group_name_H-M_alt 'P 1'
_space_group_name_Hall 'P 1'
loop_
    _symmetry_equiv_pos_as_xyz
    x,y,z
loop_
    _atom_site_label
    _atom_site_type_symbol
    _atom_site_fract_x
    _atom_site_fract_y
    _atom_site_fract_z
    _atom_site_occupancy
    N0      N    0.86957   0.34542   0.15410   1.000
    N1      N    0.15428   0.15369   0.63045   1.000
    N2      N    0.13032   0.84615   0.65448   1.000
    N3      N    0.65353   0.36898   0.65465   1.000
    N4      N    0.34616   0.15406   0.86889   1.000
    N5      N    0.65402   0.84575   0.13101   1.000
    N6      N    0.15401   0.34666   0.86872   1.000
    N7      N    0.65434   0.65502   0.36991   1.000
    N8      N    0.63070   0.15441   0.15393   1.000
    N9      N    0.84591   0.84630   0.36936   1.000
    N10     N    0.15499   0.63015   0.15356   1.000
    N11     N    0.86965   0.15380   0.34553   1.000
    N12     N    0.63120   0.34697   0.34602   1.000
    N13     N    0.34578   0.34522   0.63034   1.000
    N14     N    0.34666   0.63076   0.34548   1.000
    N15     N    0.15389   0.86871   0.34594   1.000
    N16     N    0.36909   0.84552   0.84630   1.000
    N17     N    0.84532   0.36918   0.84685   1.000
    N18     N    0.34582   0.86962   0.15413   1.000
    N19     N    0.65428   0.13043   0.84594   1.000
    N20     N    0.84612   0.65332   0.13066   1.000
    N21     N    0.36900   0.65327   0.65399   1.000
    N22     N    0.84613   0.13104   0.65395   1.000
    N23     N    0.13032   0.65468   0.84622   1.000
    Zr24    Zr   0.50009   0.75021   0.25003   1.000
    O25     O    0.45072   0.71188   0.28096   1.000
    O26     O    0.54962   0.78120   0.21185   1.000
    O27     O    0.45046   0.78853   0.21895   1.000
    O28     O    0.54971   0.71937   0.28853   1.000
    Zr29    Zr   0.24990   0.74979   0.50007   1.000
    O30     O    0.28811   0.71849   0.54958   1.000
    O31     O    0.21149   0.78103   0.54972   1.000
    O32     O    0.21876   0.78796   0.45049   1.000
    O33     O    0.28129   0.71159   0.45035   1.000
    Zr34    Zr   0.99997   0.25020   0.74995   1.000
    O35     O    0.95048   0.21196   0.71883   1.000
    O36     O    0.95023   0.28838   0.78138   1.000
    O37     O    0.04960   0.21892   0.71158   1.000
    O38     O    0.04952   0.28149   0.78804   1.000
    Zr39    Zr   0.00009   0.74955   0.24988   1.000
    O40     O    0.95055   0.71836   0.21163   1.000
    O41     O    0.95050   0.78092   0.28823   1.000
    O42     O    0.04991   0.71121   0.21866   1.000
    O43     O    0.04957   0.78779   0.28103   1.000
    Zr44    Zr   0.74995   0.00009   0.24992   1.000
    O45     O    0.78104   0.95061   0.28826   1.000
    O46     O    0.71882   0.95044   0.21178   1.000
    O47     O    0.78840   0.04953   0.28090   1.000
    O48     O    0.71169   0.04972   0.21878   1.000
    Zr49    Zr   0.75033   0.50026   0.25026   1.000
    O50     O    0.78860   0.45046   0.21908   1.000
    O51     O    0.71212   0.45093   0.28132   1.000
    O52     O    0.71922   0.55002   0.28869   1.000
    O53     O    0.78137   0.54951   0.21188   1.000
    Zr54    Zr   0.25011   0.99984   0.75001   1.000
    O55     O    0.28128   0.04944   0.78814   1.000
    O56     O    0.21906   0.04933   0.71162   1.000
    O57     O    0.21165   0.95040   0.71907   1.000
    O58     O    0.28828   0.95021   0.78126   1.000
    Zr59    Zr   0.25000   0.75010   0.00016   1.000
    O60     O    0.28819   0.78105   0.95065   1.000
    O61     O    0.28106   0.78847   0.04963   1.000
    O62     O    0.21922   0.71159   0.04952   1.000
    O63     O    0.21159   0.71918   0.95064   1.000
    Zr64    Zr   0.49996   0.24972   0.74996   1.000
    O65     O    0.54961   0.21144   0.78109   1.000
    O66     O    0.54938   0.28798   0.71907   1.000
    O67     O    0.45047   0.21870   0.78810   1.000
    O68     O    0.45037   0.28068   0.71156   1.000
    Zr69    Zr   0.75002   0.24973   0.00018   1.000
    O70     O    0.78091   0.28806   0.95084   1.000
    O71     O    0.78840   0.28075   0.04969   1.000
    O72     O    0.71898   0.21145   0.95056   1.000
    O73     O    0.71174   0.21883   0.04965   1.000
    Zr74    Zr   0.75010   0.25012   0.49989   1.000
    O75     O    0.78124   0.21190   0.54944   1.000
    O76     O    0.71876   0.28826   0.54965   1.000
    O77     O    0.71196   0.28154   0.45039   1.000
    O78     O    0.78849   0.21890   0.45025   1.000
    Zr79    Zr   0.24967   0.50006   0.74970   1.000
    O80     O    0.28795   0.54935   0.71868   1.000
    O81     O    0.21136   0.54978   0.78101   1.000
    O82     O    0.28083   0.45026   0.71138   1.000
    O83     O    0.21865   0.45070   0.78787   1.000
loop_
    _geom_bond_atom_site_label_1
    _geom_bond_atom_site_label_2
    _geom_bond_distance
    _geom_bond_site_symmetry_2
    _ccdc_geom_bond_type
    Zr24   O25       1.12524      .   S
    N14    O25       2.36971      .   S
    Zr24   O26       1.12566      .   S
    N5     O26       2.37053      .   S
    Zr24   O27       1.12521      .   S
    N18    O27       2.36984      .   S
    Zr24   O28       1.12518      .   S
    N7     O28       2.36992      .   S
    Zr29   O30       1.12566      .   S
    N21    O30       2.37078      .   S
    Zr29   O31       1.12554      .   S
    N2     O31       2.37056      .   S
    Zr29   O32       1.12516      .   S
    N15    O32       2.36964      .   S
    Zr29   O33       1.12543      .   S
    N14    O33       2.37019      .   S
    Zr34   O35       1.12513      .   S
    N22    O35       2.36959      .   S
    Zr34   O36       1.12544      .   S
    N17    O36       2.37033      .   S
    Zr34   O37       1.12515  1_655   S
    N1     O37       2.36969      .   S
    Zr34   O38       1.12540  1_655   S
    N6     O38       2.37036      .   S
    Zr39   O40       1.12592  1_455   S
    N20    O40       2.37132      .   S
    Zr39   O41       1.12518  1_455   S
    N9     O41       2.36975      .   S
    Zr39   O42       1.12620      .   S
    N10    O42       2.37185      .   S
    Zr39   O43       1.12512      .   S
    N15    O43       2.36956      .   S
    Zr44   O45       1.12486  1_545   S
    N9     O45       2.36905      .   S
    Zr44   O46       1.12532  1_545   S
    N5     O46       2.36984      .   S
    Zr44   O47       1.12517      .   S
    N11    O47       2.36964      .   S
    Zr44   O48       1.12560      .   S
    N8     O48       2.37072      .   S
    Zr49   O50       1.12506      .   S
    N0     O50       2.36929      .   S
    Zr49   O51       1.12492      .   S
    N12    O51       2.36916      .   S
    Zr49   O52       1.12566      .   S
    N7     O52       2.37081      .   S
    Zr49   O53       1.12553      .   S
    N20    O53       2.37051      .   S
    Zr54   O55       1.12504  1_565   S
    N4     O55       2.36940      .   S
    Zr54   O56       1.12524  1_565   S
    N1     O56       2.36977      .   S
    Zr54   O57       1.12508      .   S
    N2     O57       2.36973      .   S
    Zr54   O58       1.12549      .   S
    N16    O58       2.37029      .   S
    Zr59   O60       1.12534  1_554   S
    N16    O60       2.36997      .   S
    Zr59   O61       1.12440      .   S
    N18    O61       2.37001      .   S
    Zr59   O62       1.12561      .   S
    N10    O62       2.37062      .   S
    Zr59   O63       1.12469  1_554   S
    N23    O63       2.36880      .   S
    Zr64   O65       1.12524      .   S
    N19    O65       2.36981      .   S
    Zr64   O66       1.12486      .   S
    N3     O66       2.36903      .   S
    Zr64   O67       1.12512      .   S
    N4     O67       2.36975      .   S
    Zr64   O68       1.12500      .   S
    N13    O68       2.36935      .   S
    Zr69   O70       1.12449  1_554   S
    N17    O70       2.36842      .   S
    Zr69   O71       1.12497      .   S
    N0     O71       2.36902      .   S
    Zr69   O72       1.12521  1_554   S
    N19    O72       2.36980      .   S
    Zr69   O73       1.12531      .   S
    N8     O73       2.37012      .   S
    Zr74   O75       1.12544      .   S
    N22    O75       2.37012      .   S
    Zr74   O76       1.12506      .   S
    N3     O76       2.36955      .   S
    Zr74   O77       1.12580      .   S
    N12    O77       2.37064      .   S
    Zr74   O78       1.12522      .   S
    N11    O78       2.36984      .   S
    Zr79   O80       1.12504      .   S
    N21    O80       2.36963      .   S
    Zr79   O81       1.12542      .   S
    N23    O81       2.37016      .   S
    Zr79   O82       1.12537      .   S
    N13    O82       2.37008      .   S
    Zr79   O83       1.12469      .   S
    N6     O83       2.36902      .   S
