# CIF file generated by openbabel 2.4.90, see http://openbabel.sf.net
data_I
_chemical_name_common ''
_cell_length_a 23.716
_cell_length_b 14.398
_cell_length_c 17.462
_cell_angle_alpha 89.922
_cell_angle_beta 93.421
_cell_angle_gamma 87.6
_space_group_name_H-M_alt 'P 1'
_space_group_name_Hall 'P 1'
loop_
    _symmetry_equiv_pos_as_xyz
    x,y,z
loop_
    _atom_site_label
    _atom_site_type_symbol
    _atom_site_fract_x
    _atom_site_fract_y
    _atom_site_fract_z
    _atom_site_occupancy
    Cd0     Cd   0.50113   0.63620   0.98445   1.000
    Cd1     Cd   0.00504   0.36007   0.01662   1.000
    Cd2     Cd   0.50527   0.35960   0.01620   1.000
    Cd3     Cd   0.00286   0.86060   0.48441   1.000
    Cd4     Cd   0.50293   0.86128   0.48404   1.000
    Cd5     Cd   0.99834   0.13649   0.51627   1.000
    Cd6     Cd   0.49804   0.13726   0.51611   1.000
    Cd7     Cd   0.00159   0.63662   0.98508   1.000
    C8      C    0.99253   0.30212   0.59702   1.000
    C9      C    0.49516   0.30278   0.59699   1.000
    C10     C    0.99681   0.43016   0.86166   1.000
    C11     C    0.49831   0.42991   0.86163   1.000
    C12     C    0.00681   0.56640   0.13990   1.000
    C13     C    0.50614   0.56686   0.13913   1.000
    C14     C    0.00880   0.69422   0.40467   1.000
    C15     C    0.50766   0.69463   0.40422   1.000
    C16     C    0.99372   0.06762   0.36129   1.000
    C17     C    0.49387   0.06966   0.36149   1.000
    C18     C    0.99943   0.19379   0.09614   1.000
    C19     C    0.50163   0.19303   0.09597   1.000
    C20     C    0.00814   0.92874   0.63900   1.000
    C21     C    0.50431   0.92928   0.63838   1.000
    C22     C    0.00753   0.80153   0.90427   1.000
    C23     C    0.49645   0.80199   0.90240   1.000
    O24     O    0.99496   0.49662   0.90980   1.000
    O25     O    0.49616   0.49613   0.91003   1.000
    O26     O    0.00213   0.34510   0.88394   1.000
    O27     O    0.50366   0.34482   0.88372   1.000
    O28     O    0.99498   0.22160   0.62906   1.000
    O29     O    0.49851   0.22228   0.62910   1.000
    O30     O    0.99243   0.31255   0.52461   1.000
    O31     O    0.49373   0.31311   0.52449   1.000
    O32     O    0.00536   0.49954   0.09210   1.000
    O33     O    0.50354   0.50030   0.09099   1.000
    O34     O    0.00545   0.65136   0.11732   1.000
    O35     O    0.50618   0.65176   0.11672   1.000
    O36     O    0.00741   0.77487   0.37290   1.000
    O37     O    0.50619   0.77540   0.37260   1.000
    O38     O    0.00752   0.68354   0.47684   1.000
    O39     O    0.50645   0.68372   0.47639   1.000
    O40     O    0.99259   0.00105   0.40960   1.000
    O41     O    0.49375   0.00343   0.41034   1.000
    O42     O    0.99487   0.15241   0.38339   1.000
    O43     O    0.49382   0.15468   0.38310   1.000
    O44     O    0.00778   0.27298   0.12791   1.000
    O45     O    0.51364   0.27125   0.12717   1.000
    O46     O    0.99484   0.18399   0.02370   1.000
    O47     O    0.49376   0.18392   0.02380   1.000
    O48     O    0.00752   0.99546   0.59047   1.000
    O49     O    0.50136   0.99587   0.58963   1.000
    O50     O    0.00751   0.84392   0.61684   1.000
    O51     O    0.51109   0.84456   0.61707   1.000
    O52     O    0.00488   0.72094   0.87283   1.000
    O53     O    0.50610   0.72162   0.87272   1.000
    O54     O    0.00727   0.81237   0.97649   1.000
    O55     O    0.48892   0.81232   0.97345   1.000
    Ts56    Ts   0.46759   0.63592   0.98240   1.000
    Ts57    Ts   0.53491   0.63247   0.98497   1.000
    Ts58    Ts   0.97153   0.36440   0.01705   1.000
    Ts59    Ts   0.03841   0.36144   0.01706   1.000
    Ts60    Ts   0.47170   0.36185   0.01667   1.000
    Ts61    Ts   0.53872   0.36268   0.01712   1.000
    Ts62    Ts   0.03633   0.86278   0.48480   1.000
    Ts63    Ts   0.96942   0.86065   0.48392   1.000
    Ts64    Ts   0.53631   0.86312   0.48386   1.000
    Ts65    Ts   0.46955   0.86166   0.48432   1.000
    Ts66    Ts   0.03170   0.13643   0.51647   1.000
    Ts67    Ts   0.96491   0.13441   0.51591   1.000
    Ts68    Ts   0.53151   0.13616   0.51574   1.000
    Ts69    Ts   0.46464   0.13616   0.51609   1.000
    Ts70    Ts   0.96809   0.63667   0.98432   1.000
    Ts71    Ts   0.03511   0.63110   0.98525   1.000
    Og72    Og   0.99165   0.32987   0.61416   1.000
    Og73    Og   0.49430   0.33051   0.61414   1.000
    Og74    Og   0.99534   0.43627   0.83346   1.000
    Og75    Og   0.49699   0.43617   0.83346   1.000
    Og76    Og   0.00796   0.56035   0.16810   1.000
    Og77    Og   0.50724   0.56081   0.16735   1.000
    Og78    Og   0.00979   0.66654   0.38748   1.000
    Og79    Og   0.50869   0.66699   0.38696   1.000
    Og80    Og   0.99330   0.06156   0.33313   1.000
    Og81    Og   0.49360   0.06332   0.33341   1.000
    Og82    Og   0.99774   0.16646   0.11345   1.000
    Og83    Og   0.49979   0.16590   0.11342   1.000
    Og84    Og   0.00901   0.93473   0.66717   1.000
    Og85    Og   0.50245   0.93538   0.66624   1.000
    Og86    Og   0.00874   0.82896   0.88695   1.000
    Og87    Og   0.49563   0.82954   0.88492   1.000
loop_
    _geom_bond_atom_site_label_1
    _geom_bond_atom_site_label_2
    _geom_bond_distance
    _geom_bond_site_symmetry_2
    _ccdc_geom_bond_type
    Cd2    O33       2.41199      .   S
    Cd2    O45       2.31059      .   S
    Cd2    O27       2.32162  1_554   S
    Cd1    O32       2.40355      .   S
    Cd1    O44       2.30750      .   S
    Cd1    O26       2.32434  1_554   S
    O46    C18       1.27168      .   S
    O47    C19       1.27070      .   S
    O33    C13       1.27668      .   S
    O32    C12       1.27519      .   S
    C19    O45       1.28695      .   S
    C18    O44       1.28636  1_655   S
    O35    C13       1.28305      .   S
    O35    Cd0       2.31730  1_554   S
    O34    C12       1.28327      .   S
    O34    Cd7       2.31592  1_554   S
    C16    O42       1.28174      .   S
    C16    O40       1.27812      .   S
    C17    O43       1.28134      .   S
    C17    O41       1.27886      .   S
    O37    C15       1.28497      .   S
    O37    Cd4       2.31049      .   S
    O36    C14       1.28454      .   S
    O36    Cd3       2.31240      .   S
    O43    Cd6       2.33153      .   S
    O42    Cd5       2.32756      .   S
    C15    O39       1.27193      .   S
    C14    O38       1.27168      .   S
    O40    Cd3       2.40186  1_645   S
    O41    Cd4       2.41126  1_545   S
    Cd4    O51       2.33079      .   S
    Cd3    O50       2.32019      .   S
    Cd6    O31       2.53438      .   S
    Cd6    O49       2.40133  1_545   S
    Cd6    O29       2.32303      .   S
    Cd5    O30       2.53781      .   S
    Cd5    O48       2.40241  1_645   S
    Cd5    O28       2.32467      .   S
    O31    C9        1.27277      .   S
    O30    C8        1.27297      .   S
    O49    C21       1.27816      .   S
    O48    C20       1.27913      .   S
    C9     O29       1.28424      .   S
    C8     O28       1.28414      .   S
    O50    C20       1.28205      .   S
    O51    C21       1.28232      .   S
    C11    O27       1.28295      .   S
    C11    O25       1.27639      .   S
    C10    O26       1.28344  1_655   S
    C10    O24       1.27564      .   S
    O53    C23       1.28598      .   S
    O53    Cd0       2.31642      .   S
    O52    C22       1.28669      .   S
    O52    Cd7       2.31124      .   S
    C23    O55       1.27202      .   S
    C22    O54       1.27126      .   S
    O24    Cd7       2.41341  1_655   S
    O25    Cd0       2.40385      .   S
    O55    Cd0       2.54591      .   S
    O54    Cd7       2.54433      .   S
    Cd0    Ts56      0.79425      .   S
    Cd0    Ts57      0.80022      .   S
    Cd1    Ts58      0.79513  1_455   S
    Cd1    Ts59      0.79192      .   S
    Cd2    Ts60      0.79587      .   S
    Cd2    Ts61      0.79552      .   S
    Cd3    Ts62      0.79524      .   S
    Cd3    Ts63      0.79253  1_455   S
    Cd4    Ts64      0.79360      .   S
    Cd4    Ts65      0.79170      .   S
    Cd5    Ts66      0.79104  1_655   S
    Cd5    Ts67      0.79426      .   S
    Cd6    Ts68      0.79368      .   S
    Cd6    Ts69      0.79293      .   S
    Cd7    Ts70      0.79369  1_455   S
    Cd7    Ts71      0.79549      .   S
    C8     Og72      0.49999      .   S
    C9     Og73      0.49988      .   S
    C10    Og74      0.49906      .   S
    C11    Og75      0.49881      .   S
    C12    Og76      0.49889      .   S
    C13    Og77      0.49921      .   S
    C14    Og78      0.49986      .   S
    C15    Og79      0.50019      .   S
    C16    Og80      0.49912      .   S
    C17    Og81      0.49865      .   S
    C18    Og82      0.50022      .   S
    C19    Og83      0.49997      .   S
    C20    Og84      0.49881      .   S
    C21    Og85      0.49874      .   S
    C22    Og86      0.49990      .   S
    C23    Og87      0.49927      .   S
