# CIF file generated by openbabel 2.4.90, see http://openbabel.sf.net
data_I
_chemical_name_common ''
_cell_length_a 23.716
_cell_length_b 14.398
_cell_length_c 17.462
_cell_angle_alpha 89.922
_cell_angle_beta 93.421
_cell_angle_gamma 87.6
_space_group_name_H-M_alt 'P 1'
_space_group_name_Hall 'P 1'
loop_
    _symmetry_equiv_pos_as_xyz
    x,y,z
loop_
    _atom_site_label
    _atom_site_type_symbol
    _atom_site_fract_x
    _atom_site_fract_y
    _atom_site_fract_z
    _atom_site_occupancy
    N0      N    0.75171   0.63247   0.98357   1.000
    N1      N    0.25496   0.36353   0.01916   1.000
    N2      N    0.98813   0.98620   0.17991   1.000
    N3      N    0.75518   0.37036   0.01996   1.000
    N4      N    0.25116   0.62994   0.98030   1.000
    N5      N    0.98750   0.51207   0.67995   1.000
    N6      N    0.74828   0.13461   0.51665   1.000
    N7      N    0.48876   0.01112   0.81710   1.000
    N8      N    0.01578   0.00987   0.82039   1.000
    N9      N    0.24814   0.13801   0.51774   1.000
    N10     N    0.48791   0.98678   0.18062   1.000
    N11     N    0.51327   0.48505   0.32090   1.000
    N12     N    0.01116   0.48454   0.32151   1.000
    N13     N    0.25300   0.86227   0.48410   1.000
    N14     N    0.75278   0.86057   0.48166   1.000
    N15     N    0.48871   0.51255   0.68020   1.000
    Zr16    Zr   0.00285   0.49796   0.00055   1.000
    O17     O    0.99695   0.48683   0.87510   1.000
    O18     O    0.99768   0.28373   0.07578   1.000
    O19     O    0.92719   0.56627   0.99215   1.000
    O20     O    0.07718   0.56355   0.99169   1.000
    O21     O    0.00771   0.71212   0.92495   1.000
    O22     O    0.00635   0.50945   0.12620   1.000
    O23     O    0.07894   0.43040   0.00939   1.000
    O24     O    0.92891   0.43321   0.00958   1.000
    Zr25    Zr   0.00066   0.99823   0.50045   1.000
    O26     O    0.00569   0.78343   0.42533   1.000
    O27     O    0.00663   0.98601   0.62564   1.000
    O28     O    0.99563   0.01030   0.37497   1.000
    O29     O    0.92445   0.06611   0.50832   1.000
    O30     O    0.07446   0.06772   0.50881   1.000
    O31     O    0.99501   0.21307   0.57590   1.000
    O32     O    0.07684   0.93065   0.49250   1.000
    O33     O    0.92670   0.92943   0.49156   1.000
    Zr34    Zr   0.50149   0.49784   0.99988   1.000
    O35     O    0.57840   0.43256   0.00932   1.000
    O36     O    0.42822   0.43054   0.00896   1.000
    O37     O    0.49744   0.28370   0.07563   1.000
    O38     O    0.50601   0.50963   0.12553   1.000
    O39     O    0.49700   0.48688   0.87484   1.000
    O40     O    0.49674   0.71253   0.92326   1.000
    O41     O    0.57662   0.56469   0.99214   1.000
    O42     O    0.42624   0.56535   0.99036   1.000
    Zr43    Zr   0.50049   0.99914   0.50028   1.000
    O44     O    0.50587   0.78412   0.42495   1.000
    O45     O    0.49781   0.98696   0.62446   1.000
    O46     O    0.57438   0.06713   0.50819   1.000
    O47     O    0.42427   0.06798   0.50860   1.000
    O48     O    0.49559   0.01130   0.37514   1.000
    O49     O    0.49589   0.21380   0.57587   1.000
    O50     O    0.42671   0.93060   0.49228   1.000
    O51     O    0.57669   0.93072   0.49150   1.000
loop_
    _geom_bond_atom_site_label_1
    _geom_bond_atom_site_label_2
    _geom_bond_distance
    _geom_bond_site_symmetry_2
    _ccdc_geom_bond_type
    Zr16   O17       2.19325  1_454   S
    N5     O17       3.41960      .   S
    Zr16   O18       3.36077  1_455   S
    N2     O18       4.67098  1_565   S
    Zr16   O19       2.00723  1_454   S
    N0     O19       4.22412      .   S
    Zr16   O20       2.04819  1_554   S
    N4     O20       4.29002      .   S
    Zr16   O21       3.36162  1_554   S
    N8     O21       4.67310  1_545   S
    Zr16   O22       2.19744      .   S
    N12    O22       3.42334      .   S
    Zr16   O23       2.01137      .   S
    N1     O23       4.23796      .   S
    Zr16   O24       2.03426  1_455   S
    N3     O24       4.26957      .   S
    Zr25   O26       3.36144      .   S
    N12    O26       4.67169      .   S
    Zr25   O27       2.18846      .   S
    N8     O27       3.41352  1_545   S
    Zr25   O28       2.19363  1_465   S
    N2     O28       3.41894  1_565   S
    Zr25   O29       2.03046  1_465   S
    N6     O29       4.26344      .   S
    Zr25   O30       2.04997  1_565   S
    N9     O30       4.27645      .   S
    Zr25   O31       3.36437  1_465   S
    N5     O31       4.67570      .   S
    Zr25   O32       2.02823      .   S
    N13    O32       4.26295      .   S
    Zr25   O33       2.04827  1_455   S
    N14    O33       4.27599      .   S
    Zr34   O35       2.01429  1_556   S
    N3     O35       4.24329      .   S
    Zr34   O36       2.03895  1_556   S
    N1     O36       4.27382      .   S
    Zr34   O37       3.36060  1_556   S
    N10    O37       4.66876  1_565   S
    Zr34   O38       2.19741  1_556   S
    N11    O38       3.42273      .   S
    Zr34   O39       2.18606      .   S
    N15    O39       3.41140      .   S
    Zr34   O40       3.36149      .   S
    N7     O40       4.67153  1_545   S
    Zr34   O41       2.07164      .   S
    N0     O41       4.31627      .   S
    Zr34   O42       1.99408      .   S
    N4     O42       4.21029      .   S
    Zr43   O44       3.36581      .   S
    N11    O44       4.67656      .   S
    Zr43   O45       2.18014      .   S
    N7     O45       3.40087  1_545   S
    Zr43   O46       2.04037  1_565   S
    N6     O46       4.27076      .   S
    Zr43   O47       2.03786  1_565   S
    N9     O47       4.26807      .   S
    Zr43   O48       2.18781  1_565   S
    N10    O48       3.41023  1_565   S
    Zr43   O49       3.36252  1_565   S
    N15    O49       4.67402      .   S
    Zr43   O50       2.04229      .   S
    N13    O50       4.26966      .   S
    Zr43   O51       2.03573      .   S
    N14    O51       4.26870      .   S
