# CIF file generated by openbabel 2.4.90, see http://openbabel.sf.net
data_I
_chemical_name_common ''
_cell_length_a 9.0205
_cell_length_b 9.026
_cell_length_c 19.517
_cell_angle_alpha 89.999
_cell_angle_beta 89.997
_cell_angle_gamma 68.782
_space_group_name_H-M_alt 'P 1'
_space_group_name_Hall 'P 1'
loop_
    _symmetry_equiv_pos_as_xyz
    x,y,z
loop_
    _atom_site_label
    _atom_site_type_symbol
    _atom_site_fract_x
    _atom_site_fract_y
    _atom_site_fract_z
    _atom_site_occupancy
    Zr0     Zr   0.30306   0.98032   0.32645   1.000
    Zr1     Zr   0.16692   0.85640   0.08283   1.000
    Zr2     Zr   0.20516   0.50124   0.31762   1.000
    Zr3     Zr   0.19677   0.51941   0.82648   1.000
    Zr4     Zr   0.33312   0.64347   0.58283   1.000
    Zr5     Zr   0.29474   0.99842   0.81762   1.000
    Zr6     Zr   0.69698   0.01945   0.67633   1.000
    Zr7     Zr   0.83296   0.14339   0.91995   1.000
    Zr8     Zr   0.79489   0.49849   0.68517   1.000
    Zr9     Zr   0.80311   0.48035   0.17630   1.000
    Zr10    Zr   0.66691   0.35631   0.41995   1.000
    Zr11    Zr   0.70522   0.00127   0.18518   1.000
    N12     N    0.01297   0.69162   0.19235   1.000
    O13     O    0.94680   0.60456   0.18326   1.000
    O14     O    0.09035   0.63137   0.23870   1.000
    O15     O    0.07206   0.74273   0.14937   1.000
    O16     O    0.89993   0.80588   0.19620   1.000
    N17     N    0.04690   0.68444   0.67477   1.000
    O18     O    0.13054   0.61532   0.72943   1.000
    O19     O    0.14015   0.67199   0.63393   1.000
    O20     O    0.95866   0.60881   0.67337   1.000
    O21     O    0.91711   0.81391   0.66958   1.000
    N22     N    0.51294   0.19155   0.31045   1.000
    O23     O    0.57203   0.24265   0.35343   1.000
    O24     O    0.44676   0.10449   0.31952   1.000
    O25     O    0.59034   0.13135   0.26410   1.000
    O26     O    0.39989   0.30582   0.30661   1.000
    N27     N    0.54668   0.18436   0.82808   1.000
    O28     O    0.63995   0.17194   0.86890   1.000
    O29     O    0.45846   0.10872   0.82949   1.000
    O30     O    0.41688   0.31383   0.83326   1.000
    O31     O    0.63046   0.11527   0.77342   1.000
    N32     N    0.13005   0.83264   0.92063   1.000
    O33     O    0.01198   0.93788   0.91742   1.000
    O34     O    0.19937   0.89342   0.88693   1.000
    O35     O    0.14844   0.83168   0.98102   1.000
    O36     O    0.15327   0.71423   0.88849   1.000
    N37     N    0.63033   0.33272   0.58289   1.000
    O38     O    0.65353   0.21432   0.61469   1.000
    O39     O    0.69962   0.39351   0.61621   1.000
    O40     O    0.51223   0.43796   0.58574   1.000
    O41     O    0.64863   0.33168   0.52305   1.000
    N42     N    0.48709   0.80818   0.69233   1.000
    O43     O    0.40968   0.86838   0.73869   1.000
    O44     O    0.42799   0.75712   0.64935   1.000
    O45     O    0.55329   0.89523   0.68326   1.000
    O46     O    0.60014   0.69389   0.69618   1.000
    N47     N    0.86981   0.16708   0.08288   1.000
    O48     O    0.84658   0.28549   0.11467   1.000
    O49     O    0.80054   0.10626   0.11622   1.000
    O50     O    0.98789   0.06187   0.08573   1.000
    O51     O    0.85143   0.16807   0.02304   1.000
    N52     N    0.36973   0.66705   0.41989   1.000
    O53     O    0.35141   0.66809   0.47973   1.000
    O54     O    0.48782   0.56181   0.41704   1.000
    O55     O    0.30044   0.60623   0.38657   1.000
    O56     O    0.34652   0.78544   0.38809   1.000
    N57     N    0.45319   0.81539   0.17471   1.000
    O58     O    0.35993   0.82784   0.13388   1.000
    O59     O    0.36946   0.88448   0.22937   1.000
    O60     O    0.54144   0.89100   0.17332   1.000
    O61     O    0.58298   0.68592   0.16952   1.000
    N62     N    0.95315   0.31535   0.32802   1.000
    O63     O    0.86946   0.38447   0.27337   1.000
    O64     O    0.04138   0.39097   0.32944   1.000
    O65     O    0.08294   0.18588   0.33321   1.000
    O66     O    0.85989   0.32779   0.36886   1.000
    N67     N    0.98694   0.30813   0.81043   1.000
    O68     O    0.90961   0.36833   0.76408   1.000
    O69     O    0.05308   0.39521   0.81951   1.000
    O70     O    0.10000   0.19385   0.80660   1.000
    O71     O    0.92784   0.25704   0.85342   1.000
loop_
    _geom_bond_atom_site_label_1
    _geom_bond_atom_site_label_2
    _geom_bond_distance
    _geom_bond_site_symmetry_2
    _ccdc_geom_bond_type
    N12    O13       1.15969  1_455   S
    Zr9    O13       2.00175      .   S
    N12    O14       1.15171      .   S
    Zr2    O14       1.98596      .   S
    N12    O15       1.17410      .   S
    Zr1    O15       2.02652      .   S
    N12    O16       1.16095  1_455   S
    Zr11   O16       1.99985  1_545   S
    N17    O18       1.32500      .   S
    Zr3    O18       2.07847      .   S
    N17    O19       1.13455      .   S
    Zr4    O19       1.94067      .   S
    N17    O20       1.22216  1_455   S
    Zr8    O20       2.07168      .   S
    N17    O21       1.32520  1_455   S
    Zr6    O21       2.17615  1_545   S
    N22    O23       1.17404      .   S
    Zr10   O23       2.02637      .   S
    N22    O24       1.15962      .   S
    Zr0    O24       2.00158  1_565   S
    N22    O25       1.15175      .   S
    Zr11   O25       1.98596      .   S
    N22    O26       1.16108      .   S
    Zr2    O26       2.00005      .   S
    N27    O28       1.13445      .   S
    Zr7    O28       1.94056      .   S
    N27    O29       1.22204      .   S
    Zr5    O29       2.07131  1_565   S
    N27    O30       1.32527      .   S
    Zr3    O30       2.17627      .   S
    N27    O31       1.32547      .   S
    Zr6    O31       2.07918      .   S
    N32    O33       1.14382      .   S
    Zr7    O33       1.97050  1_645   S
    N32    O34       1.17173      .   S
    Zr5    O34       2.01449      .   S
    N32    O35       1.18984      .   S
    Zr1    O35       2.01302  1_554   S
    N32    O36       1.19062      .   S
    Zr3    O36       2.05221      .   S
    N37    O38       1.18707      .   S
    Zr6    O38       2.04834      .   S
    N37    O39       1.16748      .   S
    Zr8    O39       2.00929      .   S
    N37    O40       1.14362      .   S
    Zr4    O40       1.97100      .   S
    N37    O41       1.17915      .   S
    Zr10   O41       2.03761      .   S
    N42    O43       1.15187      .   S
    Zr5    O43       1.98617      .   S
    N42    O44       1.17395      .   S
    Zr4    O44       2.02622      .   S
    N42    O45       1.15972      .   S
    Zr6    O45       2.00174  1_545   S
    N42    O46       1.16110      .   S
    Zr8    O46       2.00008      .   S
    N47    O48       1.18696      .   S
    Zr9    O48       2.04817      .   S
    N47    O49       1.16766      .   S
    Zr11   O49       2.00957      .   S
    N47    O50       1.14333      .   S
    Zr1    O50       1.97051  1_465   S
    N47    O51       1.17918      .   S
    Zr7    O51       2.03773  1_556   S
    N52    O53       1.17917      .   S
    Zr4    O53       2.03764      .   S
    N52    O54       1.14354      .   S
    Zr10   O54       1.97088      .   S
    N52    O55       1.16755      .   S
    Zr2    O55       2.00941      .   S
    N52    O56       1.18704      .   S
    Zr0    O56       2.04829      .   S
    N57    O58       1.13446      .   S
    Zr1    O58       1.94056      .   S
    N57    O59       1.32531      .   S
    Zr0    O59       2.07892      .   S
    N57    O60       1.22213      .   S
    Zr11   O60       2.07148  1_545   S
    N57    O61       1.32525      .   S
    Zr9    O61       2.17625      .   S
    N62    O63       1.32524      .   S
    Zr9    O63       2.07886      .   S
    N62    O64       1.22203  1_655   S
    Zr2    O64       2.07136      .   S
    N62    O65       1.32524  1_655   S
    Zr0    O65       2.17622  1_565   S
    N62    O66       1.13452      .   S
    Zr10   O66       1.94065      .   S
    N67    O68       1.15151      .   S
    Zr8    O68       1.98563      .   S
    N67    O69       1.15964  1_655   S
    Zr3    O69       2.00166      .   S
    N67    O70       1.16113  1_655   S
    Zr5    O70       2.00016  1_565   S
    N67    O71       1.17408      .   S
    Zr7    O71       2.02648      .   S
