# CIF file generated by openbabel 2.4.90, see http://openbabel.sf.net
data_I
_chemical_name_common ''
_cell_length_a 12.7072
_cell_length_b 12.778
_cell_length_c 18.446
_cell_angle_alpha 90.23
_cell_angle_beta 90.0279
_cell_angle_gamma 60.2818
_space_group_name_H-M_alt 'P 1'
_space_group_name_Hall 'P 1'
loop_
    _symmetry_equiv_pos_as_xyz
    x,y,z
loop_
    _atom_site_label
    _atom_site_type_symbol
    _atom_site_fract_x
    _atom_site_fract_y
    _atom_site_fract_z
    _atom_site_occupancy
    H0      H    0.21169   0.82732   0.25288   1.000
    H1      H    0.06016   0.87079   0.22659   1.000
    H2      H    0.13640   0.74831   0.28873   1.000
    H3      H    0.92529   0.99612   0.40421   1.000
    H4      H    0.96994   0.84741   0.37113   1.000
    H5      H    0.89327   0.97535   0.31229   1.000
    H6      H    0.17391   0.78725   0.41263   1.000
    H7      H    0.12976   0.93772   0.44011   1.000
    H8      H    0.25222   0.86335   0.37687   1.000
    H9      H    0.00078   0.07404   0.26401   1.000
    H10     H    0.15075   0.02990   0.29583   1.000
    H11     H    0.02299   0.10475   0.35595   1.000
    H12     H    0.96101   0.21197   0.92057   1.000
    H13     H    0.06681   0.06140   0.89320   1.000
    H14     H    0.11529   0.13588   0.95628   1.000
    H15     H    0.07406   0.92594   0.06949   1.000
    H16     H    0.18000   0.96957   0.03751   1.000
    H17     H    0.12674   0.89457   0.00000   1.000
    H18     H    0.03898   0.17235   0.08025   1.000
    H19     H    0.93095   0.12884   0.10675   1.000
    H20     H    0.88477   0.25117   0.04449   1.000
    H21     H    0.92077   0.00293   0.92935   1.000
    H22     H    0.81713   0.15180   0.96219   1.000
    H23     H    0.86808   0.02414   0.02126   1.000
    H24     H    0.82564   0.96156   0.58675   1.000
    H25     H    0.87033   0.06828   0.56036   1.000
    H26     H    0.74764   0.11482   0.62331   1.000
    H27     H    0.99876   0.07643   0.73726   1.000
    H28     H    0.84911   0.18055   0.70532   1.000
    H29     H    0.97726   0.12921   0.64561   1.000
    H30     H    0.78758   0.03810   0.74686   1.000
    H31     H    0.93896   0.93193   0.77314   1.000
    H32     H    0.86293   0.88485   0.71026   1.000
    H33     H    0.07457   0.92462   0.59614   1.000
    H34     H    0.02953   0.81994   0.62810   1.000
    H35     H    0.10620   0.87178   0.68776   1.000
    C36     C    0.12621   0.83456   0.27079   1.000
    C37     C    0.95769   0.93594   0.35707   1.000
    C38     C    0.16594   0.87271   0.39531   1.000
    C39     C    0.06214   0.04139   0.31054   1.000
    C40     C    0.03826   0.12653   0.93793   1.000
    C41     C    0.10280   0.95807   0.02289   1.000
    C42     C    0.96070   0.16501   0.06246   1.000
    C43     C    0.89317   0.06335   0.97637   1.000
    C44     C    0.83386   0.03895   0.60473   1.000
    C45     C    0.93770   0.10450   0.69058   1.000
    C46     C    0.87309   0.96100   0.72881   1.000
    C47     C    0.04189   0.89624   0.64284   1.000
    N48     N    0.07728   0.92189   0.33343   1.000
    N49     N    0.99876   0.07751   0.99992   1.000
    N50     N    0.92235   0.00018   0.66674   1.000
loop_
    _geom_bond_atom_site_label_1
    _geom_bond_atom_site_label_2
    _geom_bond_distance
    _geom_bond_site_symmetry_2
    _ccdc_geom_bond_type
    H17    C41       0.82579      .   S
    H23    C43       1.09556  1_554   S
    C41    H16       1.09498      .   S
    C41    H15       1.09199      .   S
    C41    N49       1.50363  1_464   S
    H20    C42       1.09656      .   S
    C42    H18       1.09451  1_655   S
    C42    H19       1.09568      .   S
    C42    N49       1.50633  1_554   S
    H1     C36       1.09564      .   S
    H0     C36       1.09453      .   S
    H9     C39       1.09456      .   S
    C36    H2        1.09654      .   S
    C36    N48       1.50647      .   S
    H10    C39       1.09511      .   S
    C39    N48       1.50362  1_545   S
    C39    H11       1.09557      .   S
    H5     C37       1.09554      .   S
    N48    C37       1.50377  1_455   S
    N48    C38       1.50652      .   S
    C37    H4        1.09500      .   S
    C37    H3        1.09451      .   S
    H8     C38       1.09651      .   S
    C38    H6        1.09435      .   S
    C38    H7        1.09565      .   S
    H25    C44       1.09567      .   S
    H24    C44       1.09471  1_565   S
    H33    C47       1.09456      .   S
    C44    H26       1.09652      .   S
    C44    N50       1.50638      .   S
    H34    C47       1.09501      .   S
    C47    N50       1.50385  1_465   S
    C47    H35       1.09553      .   S
    H29    C45       1.09556      .   S
    N50    C45       1.50367      .   S
    N50    C46       1.50651  1_545   S
    C45    H28       1.09503      .   S
    C45    H27       1.09454      .   S
    H32    C46       1.09656      .   S
    C46    H30       1.09470  1_565   S
    C46    H31       1.09566      .   S
    H13    C40       1.09567      .   S
    H12    C40       1.09453  1_655   S
    H21    C43       1.09450      .   S
    C40    H14       1.09652      .   S
    C40    N49       1.50653  1_455   S
    H22    C43       1.09491      .   S
    C43    N49       1.50363      .   S
