# CIF file generated by openbabel 2.4.90, see http://openbabel.sf.net
data_I
_chemical_name_common ''
_cell_length_a 12.7072
_cell_length_b 12.778
_cell_length_c 18.446
_cell_angle_alpha 90.23
_cell_angle_beta 90.0279
_cell_angle_gamma 60.2818
_space_group_name_H-M_alt 'P 1'
_space_group_name_Hall 'P 1'
loop_
    _symmetry_equiv_pos_as_xyz
    x,y,z
loop_
    _atom_site_label
    _atom_site_type_symbol
    _atom_site_fract_x
    _atom_site_fract_y
    _atom_site_fract_z
    _atom_site_occupancy
    H0      H    0.39547   0.99868   0.42846   1.000
    H1      H    0.52131   0.11413   0.35293   1.000
    H2      H    0.43173   0.16110   0.43217   1.000
    H3      H    0.61740   0.07672   0.49776   1.000
    H4      H    0.70116   0.00418   0.41911   1.000
    H5      H    0.59929   0.95061   0.59009   1.000
    H6      H    0.57066   0.83275   0.56526   1.000
    H7      H    0.46753   0.98491   0.53978   1.000
    H8      H    0.50934   0.74625   0.37935   1.000
    H9      H    0.47659   0.79800   0.47046   1.000
    H10     H    0.62550   0.68333   0.44653   1.000
    H11     H    0.63375   0.79477   0.29910   1.000
    H12     H    0.75442   0.73036   0.36242   1.000
    H13     H    0.70072   0.87958   0.32986   1.000
    H14     H    0.60570   0.39713   0.09677   1.000
    H15     H    0.36566   0.51723   0.02017   1.000
    H16     H    0.40733   0.43075   0.10015   1.000
    H17     H    0.30453   0.61769   0.16397   1.000
    H18     H    0.29508   0.69867   0.08475   1.000
    H19     H    0.44727   0.60375   0.25701   1.000
    H20     H    0.59402   0.57616   0.23288   1.000
    H21     H    0.54523   0.47166   0.20770   1.000
    H22     H    0.74454   0.51159   0.04781   1.000
    H23     H    0.72417   0.48153   0.13909   1.000
    H24     H    0.69036   0.62939   0.11404   1.000
    H25     H    0.57322   0.63206   0.96647   1.000
    H26     H    0.51590   0.75369   0.02912   1.000
    H27     H    0.42116   0.69763   0.00000   1.000
    H28     H    0.00000   0.60537   0.76243   1.000
    H29     H    0.11523   0.36789   0.68573   1.000
    H30     H    0.16193   0.41056   0.76516   1.000
    H31     H    0.07822   0.30790   0.83008   1.000
    H32     H    0.00499   0.29719   0.75150   1.000
    H33     H    0.95201   0.45025   0.92361   1.000
    H34     H    0.83293   0.59557   0.89995   1.000
    H35     H    0.98561   0.54799   0.87362   1.000
    H36     H    0.74424   0.74344   0.71498   1.000
    H37     H    0.79641   0.72430   0.80591   1.000
    H38     H    0.68151   0.68941   0.78193   1.000
    H39     H    0.79295   0.57186   0.63383   1.000
    H40     H    0.72917   0.51487   0.69720   1.000
    H41     H    0.87906   0.42104   0.66357   1.000
    H42     H    0.60474   0.39526   0.57156   1.000
    H43     H    0.48249   0.63292   0.64854   1.000
    H44     H    0.57165   0.59084   0.56912   1.000
    H45     H    0.38558   0.69298   0.50414   1.000
    H46     H    0.30181   0.70344   0.58268   1.000
    H47     H    0.40089   0.55110   0.41046   1.000
    H48     H    0.42741   0.40547   0.43391   1.000
    H49     H    0.53240   0.45348   0.46019   1.000
    H50     H    0.48758   0.25664   0.61862   1.000
    H51     H    0.52016   0.27639   0.52771   1.000
    H52     H    0.37074   0.31065   0.55176   1.000
    H53     H    0.36494   0.42772   0.70006   1.000
    H54     H    0.24415   0.48468   0.63676   1.000
    H55     H    0.30017   0.57871   0.67058   1.000
    H56     H    0.39337   0.00077   0.90366   1.000
    H57     H    0.63427   0.88489   0.97933   1.000
    H58     H    0.59157   0.83824   0.89990   1.000
    H59     H    0.69340   0.92267   0.83473   1.000
    H60     H    0.70491   0.99476   0.91360   1.000
    H61     H    0.55027   0.04935   0.74236   1.000
    H62     H    0.40409   0.16726   0.76702   1.000
    H63     H    0.45231   0.01504   0.79216   1.000
    H64     H    0.25569   0.25308   0.95264   1.000
    H65     H    0.27492   0.20133   0.86150   1.000
    H66     H    0.30946   0.31596   0.88570   1.000
    H67     H    0.42817   0.20449   0.03331   1.000
    H68     H    0.48473   0.26898   0.97022   1.000
    H69     H    0.57980   0.11975   0.00278   1.000
    H70     H    0.00333   0.60187   0.23726   1.000
    H71     H    0.88445   0.47987   0.31327   1.000
    H72     H    0.83899   0.56744   0.23372   1.000
    H73     H    0.92309   0.38144   0.16889   1.000
    H74     H    0.99502   0.29946   0.24773   1.000
    H75     H    0.05117   0.39738   0.07618   1.000
    H76     H    0.17005   0.42532   0.10071   1.000
    H77     H    0.01702   0.52893   0.12622   1.000
    H78     H    0.25657   0.48769   0.28637   1.000
    H79     H    0.20594   0.51871   0.19515   1.000
    H80     H    0.31997   0.37072   0.21963   1.000
    H81     H    0.20576   0.36601   0.36697   1.000
    H82     H    0.27011   0.24502   0.30385   1.000
    H83     H    0.11956   0.30024   0.33653   1.000
    C84     C    0.63527   0.89983   0.47616   1.000
    C85     C    0.58165   0.86169   0.40974   1.000
    C86     C    0.46787   0.98590   0.39066   1.000
    C87     C    0.50516   0.08238   0.40465   1.000
    C88     C    0.62150   0.02111   0.45110   1.000
    C89     C    0.56355   0.91744   0.54684   1.000
    C90     C    0.54620   0.76662   0.42790   1.000
    C91     C    0.67318   0.81434   0.34668   1.000
    C92     C    0.46394   0.63667   0.14298   1.000
    C93     C    0.55660   0.58247   0.07719   1.000
    C94     C    0.54649   0.46784   0.05858   1.000
    C95     C    0.41277   0.50354   0.07207   1.000
    C96     C    0.35697   0.62082   0.11753   1.000
    C97     C    0.51675   0.56758   0.21420   1.000
    C98     C    0.68665   0.54931   0.09597   1.000
    C99     C    0.51347   0.67187   0.01361   1.000
    C100    C    0.90011   0.46541   0.80998   1.000
    C101    C    0.86095   0.55699   0.74412   1.000
    C102    C    0.98544   0.54778   0.72453   1.000
    C103    C    0.08304   0.41516   0.73772   1.000
    C104    C    0.02200   0.35939   0.78392   1.000
    C105    C    0.91809   0.51899   0.88083   1.000
    C106    C    0.76503   0.68623   0.76317   1.000
    C107    C    0.81328   0.51289   0.68107   1.000
    C108    C    0.36495   0.53521   0.52412   1.000
    C109    C    0.41765   0.44335   0.58982   1.000
    C110    C    0.53271   0.45300   0.60951   1.000
    C111    C    0.49756   0.58580   0.59648   1.000
    C112    C    0.38087   0.64136   0.55027   1.000
    C113    C    0.43601   0.48216   0.45313   1.000
    C114    C    0.45099   0.31406   0.57052   1.000
    C115    C    0.32619   0.48688   0.65292   1.000
    C116    C    0.53514   0.09958   0.85643   1.000
    C117    C    0.44320   0.13760   0.92261   1.000
    C118    C    0.45313   0.01340   0.94149   1.000
    C119    C    0.58658   0.91683   0.92757   1.000
    C120    C    0.64207   0.97812   0.88142   1.000
    C121    C    0.48125   0.08243   0.78545   1.000
    C122    C    0.31307   0.23269   0.90421   1.000
    C123    C    0.48726   0.18496   0.98585   1.000
    C124    C    0.10121   0.36297   0.19008   1.000
    C125    C    0.13968   0.41661   0.25632   1.000
    C126    C    0.01510   0.53075   0.27525   1.000
    C127    C    0.91740   0.49453   0.26148   1.000
    C128    C    0.97876   0.37791   0.21541   1.000
    C129    C    0.08450   0.43321   0.11928   1.000
    C130    C    0.23633   0.45040   0.23797   1.000
    C131    C    0.18596   0.32651   0.31953   1.000
loop_
    _geom_bond_atom_site_label_1
    _geom_bond_atom_site_label_2
    _geom_bond_distance
    _geom_bond_site_symmetry_2
    _ccdc_geom_bond_type
    H27    C99       1.07936      .   S
    H69    C123      1.09770  1_554   S
    C99    H26       1.09788      .   S
    C99    C93       1.53960      .   S
    C99    H25       1.09796  1_554   S
    H15    C95       1.09663      .   S
    H67    C123      1.09791  1_554   S
    H22    C98       1.09909      .   S
    C94    C95       1.54535      .   S
    C94    C93       1.56921      .   S
    C94    H14       1.09971      .   S
    C95    H16       1.09816      .   S
    C95    C96       1.54553      .   S
    H75    C129      1.09999      .   S
    C93    C98       1.52873      .   S
    C93    C92       1.58897      .   S
    H18    C96       1.09656      .   S
    C98    H24       1.09786      .   S
    C98    H23       1.09813      .   S
    H76    C129      1.09581      .   S
    C96    C92       1.54297      .   S
    C96    H17       1.09850      .   S
    C129   H77       1.09852      .   S
    C129   C124      1.54159      .   S
    C92    C97       1.54156      .   S
    H73    C128      1.09848      .   S
    C124   C128      1.54322  1_455   S
    C124   C125      1.58950      .   S
    H79    C130      1.09810      .   S
    H21    C97       1.09854      .   S
    C97    H20       1.09583      .   S
    C97    H19       1.10000      .   S
    C128   H74       1.09655      .   S
    C128   C127      1.54571      .   S
    H80    C130      1.09789      .   S
    H72    C127      1.09815      .   S
    H70    C126      1.09986      .   S
    C130   C125      1.52864      .   S
    C130   H78       1.09908      .   S
    C125   C126      1.56925      .   S
    C125   C131      1.53943      .   S
    C127   C126      1.54538  1_655   S
    C127   H71       1.09668      .   S
    H11    C91       1.09813      .   S
    H82    C131      1.09789      .   S
    C131   H83       1.09769      .   S
    C131   H81       1.09813      .   S
    H13    C91       1.09773      .   S
    C91    H12       1.09787      .   S
    C91    C85       1.53949      .   S
    H1     C87       1.09669      .   S
    H8     C90       1.09904      .   S
    C86    C87       1.54519  1_565   S
    C86    C85       1.56913      .   S
    C86    H0        1.09999      .   S
    C87    H2        1.09814      .   S
    C87    C88       1.54572      .   S
    C85    C90       1.52874      .   S
    C85    C84       1.58954      .   S
    H47    C113      1.10000      .   S
    H4     C88       1.09649      .   S
    C90    H10       1.09786      .   S
    C90    H9        1.09825      .   S
    H48    C113      1.09585      .   S
    C88    C84       1.54357  1_545   S
    C88    H3        1.09854      .   S
    C113   H49       1.09859      .   S
    C113   C108      1.54165      .   S
    C84    C89       1.54157      .   S
    H45    C112      1.09842      .   S
    C108   C112      1.54284      .   S
    C108   C109      1.58942      .   S
    H51    C114      1.09825      .   S
    H7     C89       1.09859      .   S
    C89    H6        1.09581      .   S
    C89    H5        1.09998      .   S
    C112   H46       1.09657      .   S
    C112   C111      1.54562      .   S
    H52    C114      1.09787      .   S
    H44    C111      1.09819      .   S
    C114   C109      1.52877      .   S
    C114   H50       1.09910      .   S
    H42    C110      1.09498      .   S
    C109   C110      1.56931      .   S
    C109   C115      1.53942      .   S
    C111   C110      1.54545      .   S
    C111   H43       1.09665      .   S
    H39    C107      1.09811      .   S
    H54    C115      1.09772      .   S
    C115   H55       1.09768      .   S
    C115   H53       1.09812      .   S
    H41    C107      1.09766      .   S
    C107   H40       1.09771      .   S
    C107   C101      1.53935      .   S
    H29    C103      1.09666      .   S
    H36    C106      1.09910      .   S
    C102   C103      1.54539  1_655   S
    C102   C101      1.56915      .   S
    C102   H28       1.09336  1_655   S
    C103   H30       1.09816      .   S
    C103   C104      1.54568      .   S
    H61    C121      1.10003      .   S
    C101   C106      1.52855      .   S
    C101   C100      1.58936      .   S
    H32    C104      1.09656      .   S
    C106   H38       1.09785      .   S
    C106   H37       1.09816      .   S
    H62    C121      1.09581      .   S
    C104   C100      1.54294  1_455   S
    C104   H31       1.09830      .   S
    C121   H63       1.09866      .   S
    C121   C116      1.54149      .   S
    C100   C105      1.54158      .   S
    H59    C120      1.09846      .   S
    C116   C120      1.54329  1_545   S
    C116   C117      1.58913      .   S
    H65    C122      1.09821      .   S
    H35    C105      1.09859      .   S
    C105   H34       1.09584      .   S
    C105   H33       1.09997      .   S
    C120   H60       1.09646      .   S
    C120   C119      1.54562      .   S
    H66    C122      1.09785      .   S
    H58    C119      1.09810      .   S
    H56    C118      1.09998      .   S
    C122   C117      1.52860      .   S
    C122   H64       1.09907      .   S
    C117   C118      1.56899      .   S
    C117   C123      1.53953      .   S
    C119   C118      1.54518  1_565   S
    C119   H57       1.09663      .   S
    H68    C123      1.09780      .   S
