# CIF file generated by openbabel 2.4.90, see http://openbabel.sf.net
data_I
_chemical_name_common ''
_cell_length_a 12.7072
_cell_length_b 12.778
_cell_length_c 18.446
_cell_angle_alpha 90.23
_cell_angle_beta 90.0279
_cell_angle_gamma 60.2818
_space_group_name_H-M_alt 'P 1'
_space_group_name_Hall 'P 1'
loop_
    _symmetry_equiv_pos_as_xyz
    x,y,z
loop_
    _atom_site_label
    _atom_site_type_symbol
    _atom_site_fract_x
    _atom_site_fract_y
    _atom_site_fract_z
    _atom_site_occupancy
    In0     In   0.36988   0.99993   0.16605   1.000
    In1     In   0.63023   0.36927   0.83385   1.000
    In2     In   0.99940   0.63049   0.49987   1.000
    O3      O    0.78894   0.70002   0.51216   1.000
    O4      O    0.45729   0.02439   0.26228   1.000
    O5      O    0.34538   0.94799   0.30596   1.000
    O6      O    0.32065   0.85361   0.14376   1.000
    C7      C    0.76641   0.80276   0.48995   1.000
    C8      C    0.41905   0.98609   0.31537   1.000
    C9      C    0.42980   0.76778   0.15611   1.000
    C10     C    0.59577   0.41819   0.98357   1.000
    C11     C    0.80299   0.43067   0.82403   1.000
    C12     C    0.98495   0.59639   0.64936   1.000
    C13     C    0.23322   0.56966   0.51013   1.000
    C14     C    0.58091   0.40443   0.68469   1.000
    C15     C    0.56963   0.19666   0.84334   1.000
    C16     C    0.40470   0.01331   0.01679   1.000
    C17     C    0.19817   0.23216   0.17626   1.000
    C18     C    0.01449   0.58036   0.35040   1.000
    O19     O    0.85390   0.82467   0.47789   1.000
    O20     O    0.50993   0.79183   0.17820   1.000
    O21     O    0.51963   0.45510   0.93025   1.000
    O22     O    0.70731   0.34554   0.97458   1.000
    O23     O    0.82549   0.32174   0.81180   1.000
    O24     O    0.69950   0.50994   0.84660   1.000
    O25     O    0.02266   0.52044   0.59591   1.000
    O26     O    0.94705   0.70732   0.64037   1.000
    O27     O    0.14697   0.67854   0.52225   1.000
    O28     O    0.20899   0.49016   0.48764   1.000
    O29     O    0.54275   0.48029   0.73815   1.000
    O30     O    0.65404   0.29356   0.69374   1.000
    O31     O    0.67883   0.17476   0.85586   1.000
    O32     O    0.48972   0.29960   0.82136   1.000
    O33     O    0.48132   0.97544   0.06981   1.000
    O34     O    0.29314   0.05116   0.02635   1.000
    O35     O    0.17526   0.14584   0.18858   1.000
    O36     O    0.30175   0.20875   0.15365   1.000
    O37     O    0.97522   0.54330   0.40363   1.000
    O38     O    0.05305   0.65346   0.35959   1.000
    Og39    Og   0.72270   0.83511   0.48535   1.000
    Og40    Og   0.43532   0.98603   0.34047   1.000
    Og41    Og   0.44118   0.72408   0.15173   1.000
    Og42    Og   0.57934   0.43474   0.00857   1.000
    Og43    Og   0.83536   0.44225   0.81935   1.000
    Og44    Og   0.98511   0.58018   0.67441   1.000
    Og45    Og   0.27713   0.55817   0.51479   1.000
    Og46    Og   0.56484   0.42062   0.65963   1.000
    Og47    Og   0.55814   0.16430   0.84770   1.000
    Og48    Og   0.42085   0.01334   0.99169   1.000
    Og49    Og   0.16585   0.27576   0.18086   1.000
    Og50    Og   0.01470   0.56382   0.32535   1.000
loop_
    _geom_bond_atom_site_label_1
    _geom_bond_atom_site_label_2
    _geom_bond_distance
    _geom_bond_site_symmetry_2
    _ccdc_geom_bond_type
    C16    O34       1.26277      .   S
    C16    O33       1.29396  1_545   S
    O33    In0       2.19392      .   S
    O6     C9        1.29304      .   S
    O36    C17       1.26693      .   S
    C9     O20       1.26734      .   S
    In0    O35       2.27773  1_565   S
    In0    O4        2.19552  1_565   S
    C17    O35       1.29359      .   S
    O4     C8        1.29406  1_545   S
    O5     C8        1.26277      .   S
    C18    O38       1.26247      .   S
    C18    O37       1.29448  1_455   S
    O37    In2       2.19329      .   S
    O19    C7        1.29360      .   S
    O19    In2       2.27993      .   S
    O28    C13       1.26706      .   S
    C7     O3        1.26681      .   S
    In2    O25       2.19329  1_655   S
    C13    O27       1.29338      .   S
    O25    C12       1.29428  1_455   S
    O26    C12       1.26240      .   S
    C14    O30       1.26291      .   S
    C14    O29       1.29384      .   S
    O29    In1       2.19520      .   S
    O23    C11       1.29348      .   S
    O23    In1       2.27938      .   S
    O32    C15       1.26707      .   S
    C11    O24       1.26696      .   S
    In1    O21       2.19064      .   S
    C15    O31       1.29320      .   S
    O21    C10       1.29463      .   S
    O22    C10       1.26204      .   S
    O3     In2       2.37407      .   S
    O6     In0       2.28228      .   S
    O20    In0       2.36652      .   S
    O24    In1       2.37206      .   S
    O27    In2       2.28097  1_455   S
    O28    In2       2.37111  1_455   S
    O31    In1       2.28240      .   S
    O32    In1       2.36799      .   S
    O36    In0       2.37406  1_545   S
    C7     Og39      0.50912      .   S
    C8     Og40      0.50678      .   S
    C9     Og41      0.50876      .   S
    C10    Og42      0.50651  1_556   S
    C11    Og43      0.50903      .   S
    C12    Og44      0.50679      .   S
    C13    Og45      0.50908      .   S
    C14    Og46      0.50693      .   S
    C15    Og47      0.50889      .   S
    C16    Og48      0.50655  1_554   S
    C17    Og49      0.50901      .   S
    C18    Og50      0.50681      .   S
