# CIF file generated by openbabel 2.4.90, see http://openbabel.sf.net
data_I
_chemical_name_common ''
_cell_length_a 12.7072
_cell_length_b 12.778
_cell_length_c 18.446
_cell_angle_alpha 90.23
_cell_angle_beta 90.0279
_cell_angle_gamma 60.2818
_space_group_name_H-M_alt 'P 1'
_space_group_name_Hall 'P 1'
loop_
    _symmetry_equiv_pos_as_xyz
    x,y,z
loop_
    _atom_site_label
    _atom_site_type_symbol
    _atom_site_fract_x
    _atom_site_fract_y
    _atom_site_fract_z
    _atom_site_occupancy
    N0      N    0.42735   0.48646   0.56513   1.000
    N1      N    0.91374   0.51411   0.76886   1.000
    N2      N    0.57269   0.91385   0.43486   1.000
    N3      N    0.51308   0.57359   0.10237   1.000
    N4      N    0.48630   0.08555   0.89745   1.000
    N5      N    0.08727   0.42559   0.23126   1.000
    Zr6     Zr   0.36202   0.99987   0.16609   1.000
    O7      O    0.24025   0.18072   0.18665   1.000
    O8      O    0.43505   0.97489   0.28001   1.000
    O9      O    0.40982   0.02466   0.05219   1.000
    O10     O    0.42100   0.81889   0.14602   1.000
    Zr11    Zr   0.99963   0.63827   0.49993   1.000
    O12     O    0.97455   0.59069   0.61392   1.000
    O13     O    0.18142   0.57886   0.52053   1.000
    O14     O    0.81820   0.76042   0.47945   1.000
    O15     O    0.02533   0.56442   0.38599   1.000
    Zr16    Zr   0.63821   0.36152   0.83399   1.000
    O17     O    0.59016   0.43491   0.94785   1.000
    O18     O    0.57878   0.23918   0.85383   1.000
    O19     O    0.76043   0.42130   0.81346   1.000
    O20     O    0.56515   0.40955   0.72005   1.000
loop_
    _geom_bond_atom_site_label_1
    _geom_bond_atom_site_label_2
    _geom_bond_distance
    _geom_bond_site_symmetry_2
    _ccdc_geom_bond_type
    Zr6    O7        2.08012  1_565   S
    N5     O7        2.86298      .   S
    Zr6    O8        2.25588      .   S
    N2     O8        3.23834      .   S
    Zr6    O9        2.25399  1_565   S
    N4     O9        3.23539  1_556   S
    Zr6    O10       2.07885      .   S
    N3     O10       2.86118      .   S
    Zr11   O12       2.25722      .   S
    N1     O12       3.23991      .   S
    Zr11   O13       2.07840  1_655   S
    N0     O13       2.86070      .   S
    Zr11   O14       2.08097      .   S
    N2     O14       2.86336      .   S
    Zr11   O15       2.25699  1_655   S
    N5     O15       3.23874      .   S
    Zr16   O17       2.25426      .   S
    N3     O17       3.23486  1_554   S
    Zr16   O18       2.07934      .   S
    N4     O18       2.86051      .   S
    Zr16   O19       2.07792      .   S
    N1     O19       2.85985      .   S
    Zr16   O20       2.25815      .   S
    N0     O20       3.24186      .   S
