# CIF file generated by openbabel 2.4.90, see http://openbabel.sf.net
data_I
_chemical_name_common ''
_cell_length_a 18.591
_cell_length_b 14.43
_cell_length_c 17.459
_cell_angle_alpha 99.039
_cell_angle_beta 89.947
_cell_angle_gamma 108.708
_space_group_name_H-M_alt 'P 1'
_space_group_name_Hall 'P 1'
loop_
    _symmetry_equiv_pos_as_xyz
    x,y,z
loop_
    _atom_site_label
    _atom_site_type_symbol
    _atom_site_fract_x
    _atom_site_fract_y
    _atom_site_fract_z
    _atom_site_occupancy
    Zr0     Zr   0.48760   0.34786   0.33930   1.000
    Zr1     Zr   0.98760   0.34785   0.33930   1.000
    Zr2     Zr   0.28392   0.34436   0.54646   1.000
    Zr3     Zr   0.78393   0.34436   0.54646   1.000
    Zr4     Zr   0.31301   0.65152   0.16034   1.000
    Zr5     Zr   0.81302   0.65153   0.16034   1.000
    Zr6     Zr   0.11059   0.65601   0.95378   1.000
    Zr7     Zr   0.61059   0.65602   0.95378   1.000
    Zr8     Zr   0.01241   0.65216   0.66062   1.000
    Zr9     Zr   0.51242   0.65216   0.66060   1.000
    Zr10    Zr   0.21609   0.65566   0.45354   1.000
    Zr11    Zr   0.71610   0.65566   0.45354   1.000
    Zr12    Zr   0.18699   0.34847   0.83966   1.000
    Zr13    Zr   0.68700   0.34848   0.83966   1.000
    Zr14    Zr   0.38942   0.34399   0.04620   1.000
    Zr15    Zr   0.88942   0.34400   0.04620   1.000
    N16     N    0.21625   0.98487   0.86547   1.000
    O17     O    0.28860   0.12805   0.94224   1.000
    O18     O    0.13543   0.84913   0.78222   1.000
    N19     N    0.72347   0.01541   0.63418   1.000
    O20     O    0.71100   0.15136   0.71769   1.000
    O21     O    0.72376   0.87194   0.55737   1.000
    N22     N    0.55799   0.42841   0.63500   1.000
    O23     O    0.63001   0.52384   0.56651   1.000
    O24     O    0.65148   0.39791   0.60399   1.000
    O25     O    0.44259   0.38986   0.60912   1.000
    O26     O    0.60726   0.39323   0.71386   1.000
    N27     N    0.15641   0.42787   0.13463   1.000
    O28     O    0.25293   0.38938   0.10882   1.000
    O29     O    0.04805   0.39758   0.10374   1.000
    O30     O    0.08961   0.39270   0.21348   1.000
    O31     O    0.13164   0.52365   0.06639   1.000
    N32     N    0.34359   0.57212   0.86535   1.000
    O33     O    0.24708   0.61061   0.89117   1.000
    O34     O    0.36837   0.47634   0.93360   1.000
    O35     O    0.45197   0.60242   0.89625   1.000
    O36     O    0.41040   0.60729   0.78648   1.000
    N37     N    0.78377   0.01514   0.13451   1.000
    O38     O    0.86459   0.15087   0.21775   1.000
    O39     O    0.71142   0.87196   0.05774   1.000
    N40     N    0.65642   0.42787   0.13463   1.000
    O41     O    0.58961   0.39271   0.21348   1.000
    O42     O    0.75293   0.38938   0.10882   1.000
    O43     O    0.54805   0.39758   0.10374   1.000
    O44     O    0.63164   0.52366   0.06639   1.000
    N45     N    0.94204   0.57159   0.36498   1.000
    O46     O    0.84854   0.60210   0.39600   1.000
    O47     O    0.89276   0.60677   0.28613   1.000
    O48     O    0.05743   0.61014   0.39087   1.000
    O49     O    0.87002   0.47617   0.43349   1.000
    N50     N    0.44203   0.57160   0.36498   1.000
    O51     O    0.34854   0.60210   0.39600   1.000
    O52     O    0.39275   0.60677   0.28613   1.000
    O53     O    0.55743   0.61015   0.39087   1.000
    O54     O    0.37002   0.47617   0.43348   1.000
    N55     N    0.77657   0.98460   0.36581   1.000
    O56     O    0.78903   0.84866   0.28230   1.000
    O57     O    0.77627   0.12808   0.44262   1.000
    N58     N    0.71625   0.98487   0.86546   1.000
    O59     O    0.78860   0.12805   0.94224   1.000
    O60     O    0.63543   0.84914   0.78221   1.000
    N61     N    0.22346   0.01541   0.63417   1.000
    O62     O    0.21099   0.15135   0.71769   1.000
    O63     O    0.22375   0.87194   0.55737   1.000
    N64     N    0.05798   0.42841   0.63500   1.000
    O65     O    0.94259   0.38986   0.60912   1.000
    O66     O    0.15148   0.39791   0.60399   1.000
    O67     O    0.10726   0.39323   0.71386   1.000
    O68     O    0.13000   0.52384   0.56651   1.000
    N69     N    0.28377   0.01514   0.13451   1.000
    O70     O    0.36458   0.15087   0.21775   1.000
    O71     O    0.21142   0.87196   0.05774   1.000
    N72     N    0.27655   0.98460   0.36580   1.000
    O73     O    0.27626   0.12808   0.44261   1.000
    O74     O    0.28902   0.84866   0.28228   1.000
    N75     N    0.84360   0.57213   0.86536   1.000
    O76     O    0.74708   0.61062   0.89117   1.000
    O77     O    0.86838   0.47635   0.93360   1.000
    O78     O    0.95197   0.60242   0.89625   1.000
    O79     O    0.91040   0.60730   0.78649   1.000
    O80     O    0.04058   0.51602   0.64308   1.000
    O81     O    0.28150   0.47724   0.86426   1.000
    O82     O    0.22469   0.51462   0.13720   1.000
    O83     O    0.71851   0.52275   0.13573   1.000
    O84     O    0.95699   0.47674   0.36390   1.000
    O85     O    0.54303   0.52327   0.63606   1.000
    O86     O    0.78266   0.48454   0.85730   1.000
    O87     O    0.45943   0.48399   0.35689   1.000
loop_
    _geom_bond_atom_site_label_1
    _geom_bond_atom_site_label_2
    _geom_bond_distance
    _geom_bond_site_symmetry_2
    _ccdc_geom_bond_type
    N16    O17       2.28582  1_565   S
    Zr14   O17       3.31665  1_554   S
    N16    O18       2.32977      .   S
    Zr8    O18       3.42926      .   S
    N19    O20       2.32814      .   S
    Zr13   O20       3.42552      .   S
    N19    O21       2.28456  1_545   S
    Zr11   O21       3.31427      .   S
    N22    O23       2.10972      .   S
    Zr11   O23       3.04787      .   S
    N22    O24       1.98044      .   S
    Zr3    O24       2.93957      .   S
    N22    O25       2.06721      .   S
    Zr2    O25       2.97774      .   S
    N22    O26       1.87417      .   S
    Zr13   O26       2.91624      .   S
    N27    O28       2.07129      .   S
    Zr14   O28       2.98313      .   S
    N27    O29       1.97583      .   S
    Zr15   O29       2.93292  1_655   S
    N27    O30       1.87276      .   S
    Zr1    O30       2.91407  1_655   S
    N27    O31       2.11403      .   S
    Zr6    O31       3.05404  1_556   S
    N32    O33       2.07127      .   S
    Zr6    O33       2.98309      .   S
    N32    O34       2.11399      .   S
    Zr14   O34       3.05385  1_554   S
    N32    O35       1.97596      .   S
    Zr7    O35       2.93298      .   S
    N32    O36       1.87315      .   S
    Zr9    O36       2.91507      .   S
    N37    O38       2.32970      .   S
    Zr1    O38       3.42887      .   S
    N37    O39       2.28577  1_545   S
    Zr7    O39       3.31661  1_556   S
    N40    O41       1.87279      .   S
    Zr0    O41       2.91419      .   S
    N40    O42       2.07128      .   S
    Zr15   O42       2.98312      .   S
    N40    O43       1.97592      .   S
    Zr14   O43       2.93300      .   S
    N40    O44       2.11402      .   S
    Zr7    O44       3.05402  1_556   S
    N45    O46       1.98048      .   S
    Zr11   O46       2.93963      .   S
    N45    O47       1.87412      .   S
    Zr5    O47       2.91612      .   S
    N45    O48       2.06712  1_655   S
    Zr10   O48       2.97776      .   S
    N45    O49       2.10973      .   S
    Zr3    O49       3.04792      .   S
    N50    O51       1.98052      .   S
    Zr10   O51       2.93968      .   S
    N50    O52       1.87410      .   S
    Zr4    O52       2.91607      .   S
    N50    O53       2.06719      .   S
    Zr11   O53       2.97785      .   S
    N50    O54       2.10977      .   S
    Zr2    O54       3.04799      .   S
    N55    O56       2.32807      .   S
    Zr5    O56       3.42542      .   S
    N55    O57       2.28463  1_565   S
    Zr3    O57       3.31439      .   S
    N58    O59       2.28585  1_565   S
    Zr15   O59       3.31667  1_554   S
    N58    O60       2.32978      .   S
    Zr9    O60       3.42934      .   S
    N61    O62       2.32813      .   S
    Zr12   O62       3.42549      .   S
    N61    O63       2.28455  1_545   S
    Zr10   O63       3.31427      .   S
    N64    O65       2.06711  1_455   S
    Zr3    O65       2.97769      .   S
    N64    O66       1.98042      .   S
    Zr2    O66       2.93954      .   S
    N64    O67       1.87414      .   S
    Zr12   O67       2.91623      .   S
    N64    O68       2.10972      .   S
    Zr10   O68       3.04788      .   S
    N69    O70       2.32967      .   S
    Zr0    O70       3.42884      .   S
    N69    O71       2.28581  1_545   S
    Zr6    O71       3.31665  1_556   S
    N72    O73       2.28468  1_565   S
    Zr2    O73       3.31443      .   S
    N72    O74       2.32816      .   S
    Zr4    O74       3.42533      .   S
    N75    O76       2.07129      .   S
    Zr7    O76       2.98311      .   S
    N75    O77       2.11398      .   S
    Zr15   O77       3.05384  1_554   S
    N75    O78       1.97585      .   S
    Zr6    O78       2.93290  1_455   S
    N75    O79       1.87302      .   S
    Zr8    O79       2.91484  1_455   S
    N64    O80       1.38881      .   S
    Zr8    O80       2.16751      .   S
    N32    O81       1.47828      .   S
    Zr12   O81       2.09299      .   S
    N27    O82       1.46409      .   S
    Zr4    O82       2.10507      .   S
    N40    O83       1.47828      .   S
    Zr5    O83       2.09301      .   S
    N45    O84       1.47894      .   S
    Zr1    O84       2.09639      .   S
    N22    O85       1.47902      .   S
    Zr9    O85       2.09633      .   S
    N75    O86       1.38806      .   S
    Zr13   O86       2.16410      .   S
    N50    O87       1.38876      .   S
    Zr0    O87       2.16741      .   S
