# CIF file generated by openbabel 2.4.90, see http://openbabel.sf.net
data_I
_chemical_name_common 'VESTA_phase_1'
_cell_length_a 13.828
_cell_length_b 15.638
_cell_length_c 15.641
_cell_angle_alpha 90.018
_cell_angle_beta 90.001
_cell_angle_gamma 89.957
_space_group_name_H-M_alt 'P 1'
_space_group_name_Hall 'P 1'
loop_
    _symmetry_equiv_pos_as_xyz
    x,y,z
loop_
    _atom_site_label
    _atom_site_type_symbol
    _atom_site_fract_x
    _atom_site_fract_y
    _atom_site_fract_z
    _atom_site_occupancy
    Zn0     Zn   0.63840   0.00002   0.10000   1.000
    Zn1     Zn   0.13852   0.50003   0.49989   1.000
    Zn2     Zn   0.86146   0.49999   0.50007   1.000
    Zn3     Zn   0.36156   0.99998   0.99990   1.000
    H4      H    0.49997   0.40681   0.59317   1.000
    H5      H    0.50001   0.59319   0.40678   1.000
    H6      H    1.00000   0.90690   0.90685   1.000
    H7      H    0.00002   0.09311   0.09312   1.000
    H8      H    0.34406   0.23726   0.76280   1.000
    H9      H    0.34397   0.76289   0.23718   1.000
    H10     H    0.84405   0.73729   0.73717   1.000
    H11     H    0.84395   0.26286   0.26278   1.000
    H12     H    0.15593   0.26273   0.26279   1.000
    H13     H    0.15603   0.73715   0.73720   1.000
    H14     H    0.65592   0.76275   0.23716   1.000
    H15     H    0.65601   0.23712   0.76278   1.000
    C16     C    0.50003   0.16291   0.83706   1.000
    C17     C    0.50004   0.22899   0.77098   1.000
    C18     C    0.49999   0.35761   0.64236   1.000
    C19     C    0.49995   0.83710   0.16289   1.000
    C20     C    0.49994   0.77102   0.22897   1.000
    C21     C    0.49999   0.64239   0.35759   1.000
    C22     C    0.00005   0.66292   0.66289   1.000
    C23     C    0.00005   0.72902   0.72898   1.000
    C24     C    0.00002   0.85769   0.85764   1.000
    C25     C    0.99996   0.33709   0.33708   1.000
    C26     C    0.99996   0.27099   0.27098   1.000
    C27     C    1.00000   0.14233   0.14233   1.000
    C28     C    0.41292   0.26112   0.73888   1.000
    C29     C    0.41265   0.32572   0.67420   1.000
    C30     C    0.32073   0.35612   0.64385   1.000
    C31     C    0.41285   0.73895   0.26107   1.000
    C32     C    0.41262   0.67431   0.32567   1.000
    C33     C    0.32072   0.64394   0.35605   1.000
    C34     C    0.91291   0.76116   0.76108   1.000
    C35     C    0.91265   0.82578   0.82573   1.000
    C36     C    0.82071   0.85617   0.85611   1.000
    C37     C    0.91283   0.23892   0.23888   1.000
    C38     C    0.91260   0.17426   0.17426   1.000
    C39     C    0.82069   0.14390   0.14390   1.000
    C40     C    0.08706   0.23885   0.23888   1.000
    C41     C    0.08733   0.17424   0.17423   1.000
    C42     C    0.17927   0.14385   0.14385   1.000
    C43     C    0.08715   0.76109   0.76109   1.000
    C44     C    0.08738   0.82575   0.82571   1.000
    C45     C    0.17929   0.85611   0.85607   1.000
    C46     C    0.58706   0.73888   0.26107   1.000
    C47     C    0.58733   0.67429   0.32570   1.000
    C48     C    0.67925   0.64388   0.35610   1.000
    C49     C    0.58713   0.26105   0.73888   1.000
    C50     C    0.58736   0.32570   0.67428   1.000
    C51     C    0.67926   0.35607   0.64390   1.000
    N52     N    0.54865   0.07238   0.92779   1.000
    N53     N    0.58108   0.12894   0.87133   1.000
    N54     N    0.21426   0.42383   0.57605   1.000
    N55     N    0.30905   0.41705   0.58280   1.000
    N56     N    0.23331   0.32661   0.67345   1.000
    N57     N    0.16686   0.36873   0.63130   1.000
    N58     N    0.54863   0.92779   0.07241   1.000
    N59     N    0.58101   0.87130   0.12900   1.000
    N60     N    0.21431   0.57616   0.42374   1.000
    N61     N    0.30909   0.58287   0.41696   1.000
    N62     N    0.23328   0.67356   0.32650   1.000
    N63     N    0.16686   0.63143   0.36860   1.000
    N64     N    0.04866   0.57237   0.57210   1.000
    N65     N    0.08109   0.62895   0.62861   1.000
    N66     N    0.71417   0.92385   0.92390   1.000
    N67     N    0.80897   0.91709   0.91719   1.000
    N68     N    0.73332   0.82660   0.82647   1.000
    N69     N    0.66682   0.86870   0.86861   1.000
    N70     N    0.04864   0.42780   0.42759   1.000
    N71     N    0.08103   0.37130   0.37097   1.000
    N72     N    0.71420   0.07615   0.07624   1.000
    N73     N    0.80900   0.08283   0.08297   1.000
    N74     N    0.73327   0.17356   0.17350   1.000
    N75     N    0.66681   0.13144   0.13142   1.000
    N76     N    0.95132   0.42765   0.42783   1.000
    N77     N    0.91889   0.37106   0.37136   1.000
    N78     N    0.28581   0.07617   0.07600   1.000
    N79     N    0.19101   0.08293   0.08277   1.000
    N80     N    0.26666   0.17342   0.17348   1.000
    N81     N    0.33316   0.13132   0.13134   1.000
    N82     N    0.95133   0.57221   0.57237   1.000
    N83     N    0.91895   0.62871   0.62899   1.000
    N84     N    0.28578   0.92386   0.92372   1.000
    N85     N    0.19098   0.91718   0.91699   1.000
    N86     N    0.26671   0.82645   0.82648   1.000
    N87     N    0.33317   0.86856   0.86856   1.000
    N88     N    0.45133   0.92764   0.07210   1.000
    N89     N    0.41890   0.87107   0.12863   1.000
    N90     N    0.78572   0.57617   0.42391   1.000
    N91     N    0.69093   0.58297   0.41717   1.000
    N92     N    0.76667   0.67341   0.32652   1.000
    N93     N    0.83312   0.63130   0.36867   1.000
    N94     N    0.45135   0.07223   0.92750   1.000
    N95     N    0.41896   0.12871   0.87090   1.000
    N96     N    0.78567   0.42385   0.57622   1.000
    N97     N    0.69089   0.41713   0.58299   1.000
    N98     N    0.76670   0.32647   0.67340   1.000
    N99     N    0.83312   0.36860   0.63130   1.000
loop_
    _geom_bond_atom_site_label_1
    _geom_bond_atom_site_label_2
    _geom_bond_distance
    _geom_bond_site_symmetry_2
    _ccdc_geom_bond_type
    N88    N58       1.34538      .   S
    N88    N89       1.32909      .   S
    N88    Zn3       2.02354  1_554   S
    N58    N59       1.32823      .   S
    N58    Zn0       1.73348  1_565   S
    N78    N79       1.31932      .   S
    N78    N81       1.38637      .   S
    N78    Zn3       1.98264  1_544   S
    N72    N73       1.31924      .   S
    N72    N75       1.38592      .   S
    N72    Zn0       1.62981      .   S
    N79    C42       1.35865      .   S
    N73    C39       1.35876      .   S
    H7     C27       1.08829  1_455   S
    N89    C19       1.35075      .   S
    N59    C19       1.35085      .   S
    N81    N80       1.30855      .   S
    N75    N74       1.30850      .   S
    C27    C41       1.39901  1_655   S
    C27    C38       1.39939      .   S
    C42    N80       1.37461      .   S
    C42    C41       1.43765      .   S
    C39    N74       1.37463      .   S
    C39    C38       1.43768      .   S
    C19    C20       1.46182      .   S
    C41    C40       1.42930      .   S
    C38    C37       1.42945      .   S
    C20    C46       1.39820      .   S
    C20    C31       1.39825      .   S
    H14    C46       1.08926      .   S
    H9     C31       1.08925      .   S
    C40    H12       1.08922      .   S
    C40    C26       1.39805  1_455   S
    C37    H11       1.08927      .   S
    C37    C26       1.39853      .   S
    C46    C47       1.42932      .   S
    C31    C32       1.42946      .   S
    C26    C25       1.46171      .   S
    C32    C33       1.43776      .   S
    C32    C21       1.39904      .   S
    C47    C48       1.43774      .   S
    C47    C21       1.39903      .   S
    N62    C33       1.37462      .   S
    N62    N63       1.30855      .   S
    N92    C48       1.37458      .   S
    N92    N93       1.30850      .   S
    C25    N71       1.35076  1_655   S
    C25    N77       1.35113      .   S
    C33    N61       1.35874      .   S
    C48    N91       1.35868      .   S
    C21    H5        1.08823      .   S
    N63    N60       1.38595      .   S
    N93    N90       1.38582      .   S
    N71    N70       1.32829      .   S
    N77    N76       1.32829      .   S
    N61    N60       1.31927      .   S
    N91    N90       1.31924      .   S
    N60    Zn1       1.98415      .   S
    N90    Zn2       1.98347      .   S
    N70    N76       1.34585  1_455   S
    N70    Zn1       2.02499      .   S
    N76    Zn2       2.02425      .   S
    Zn1    N64       2.02399      .   S
    Zn1    N54       1.98354      .   S
    Zn2    N82       2.02496      .   S
    Zn2    N96       1.98419      .   S
    N64    N82       1.34586  1_455   S
    N64    N65       1.32868      .   S
    N82    N83       1.32831      .   S
    N54    N55       1.31924      .   S
    N54    N57       1.38574      .   S
    N96    N97       1.31927      .   S
    N96    N99       1.38519      .   S
    N55    C30       1.35869      .   S
    N97    C51       1.35877      .   S
    H4     C18       1.08820      .   S
    N65    C22       1.35076      .   S
    N83    C22       1.35120  1_655   S
    N99    N98       1.30861      .   S
    N57    N56       1.30859      .   S
    C18    C29       1.39873      .   S
    C18    C50       1.39902      .   S
    C30    N56       1.37458      .   S
    C30    C29       1.43742      .   S
    C51    N98       1.37427      .   S
    C51    C50       1.43774      .   S
    C22    C23       1.46160      .   S
    C29    C28       1.42994      .   S
    C50    C49       1.42952      .   S
    C23    C34       1.39845  1_455   S
    C23    C43       1.39818      .   S
    H10    C34       1.08921      .   S
    H13    C43       1.08924      .   S
    C49    H15       1.08930      .   S
    C49    C17       1.39825      .   S
    C28    H8        1.08928      .   S
    C28    C17       1.39816      .   S
    C34    C35       1.42929      .   S
    C43    C44       1.42945      .   S
    C17    C16       1.46177      .   S
    C44    C45       1.43771      .   S
    C44    C24       1.39901      .   S
    C35    C36       1.43765      .   S
    C35    C24       1.39944  1_655   S
    N68    C36       1.37460      .   S
    N68    N69       1.30854      .   S
    N86    C45       1.37462      .   S
    N86    N87       1.30852      .   S
    C16    N95       1.35052      .   S
    C16    N53       1.35079      .   S
    C45    N85       1.35864      .   S
    C36    N67       1.35865      .   S
    C24    H6        1.08829  1_455   S
    N87    N84       1.38580      .   S
    N69    N66       1.38583      .   S
    N95    N94       1.32829      .   S
    N53    N52       1.32836      .   S
    N85    N84       1.31925      .   S
    N67    N66       1.31925      .   S
    N84    Zn3       1.98386      .   S
    N94    N52       1.34538      .   S
    N94    Zn3       2.02565  1_545   S
