# CIF file generated by openbabel 2.4.90, see http://openbabel.sf.net
data_I
_chemical_name_common ''
_cell_length_a 14.42
_cell_length_b 16.433
_cell_length_c 18.991
_cell_angle_alpha 115.842
_cell_angle_beta 102.848
_cell_angle_gamma 89.993
_space_group_name_H-M_alt 'P 1'
_space_group_name_Hall 'P 1'
loop_
    _symmetry_equiv_pos_as_xyz
    x,y,z
loop_
    _atom_site_label
    _atom_site_type_symbol
    _atom_site_fract_x
    _atom_site_fract_y
    _atom_site_fract_z
    _atom_site_occupancy
    Lv0     Lv   0.04818   0.27348   0.21791   1.000
    Lv1     Lv   0.49738   0.65084   0.25793   1.000
    Lv2     Lv   0.54863   0.94447   0.21847   1.000
    Lv3     Lv   0.45135   0.05516   0.78115   1.000
    Lv4     Lv   0.00275   0.39290   0.74214   1.000
    Lv5     Lv   0.95179   0.72647   0.78173   1.000
    Lv6     Lv   0.05045   0.87802   0.70138   1.000
    Lv7     Lv   0.55043   0.82269   0.70084   1.000
    Lv8     Lv   0.50260   0.34912   0.74206   1.000
    Lv9     Lv   0.99724   0.60706   0.25787   1.000
    Lv10    Lv   0.44956   0.17727   0.29917   1.000
    Lv11    Lv   0.94715   0.12193   0.29862   1.000
