# CIF file generated by openbabel 2.4.90, see http://openbabel.sf.net
data_I
_chemical_name_common ''
_cell_length_a 14.42
_cell_length_b 16.433
_cell_length_c 18.991
_cell_angle_alpha 115.842
_cell_angle_beta 102.848
_cell_angle_gamma 89.993
_space_group_name_H-M_alt 'P 1'
_space_group_name_Hall 'P 1'
loop_
    _symmetry_equiv_pos_as_xyz
    x,y,z
loop_
    _atom_site_label
    _atom_site_type_symbol
    _atom_site_fract_x
    _atom_site_fract_y
    _atom_site_fract_z
    _atom_site_occupancy
    Zn0     Zn   0.80038   0.14822   0.80849   1.000
    Zn1     Zn   0.24619   0.56121   0.63569   1.000
    Zn2     Zn   0.30035   0.66075   0.80850   1.000
    Zn3     Zn   0.75380   0.43875   0.36433   1.000
    Zn4     Zn   0.69964   0.33921   0.19152   1.000
    Zn5     Zn   0.25367   0.92641   0.36450   1.000
    Zn6     Zn   0.19961   0.85174   0.19153   1.000
    Zn7     Zn   0.74632   0.07355   0.63551   1.000
    C8      C    0.16834   0.73510   0.70309   1.000
    C9      C    0.91593   0.01040   0.70530   1.000
    C10     C    0.38000   0.48915   0.74073   1.000
    C11     C    0.63301   0.21365   0.73974   1.000
    C12     C    0.66836   0.96728   0.70244   1.000
    C13     C    0.41588   0.69447   0.70505   1.000
    C14     C    0.88044   0.25138   0.74082   1.000
    C15     C    0.13289   0.52618   0.73983   1.000
    C16     C    0.33163   0.03269   0.29757   1.000
    C17     C    0.58412   0.30549   0.29490   1.000
    C18     C    0.11955   0.74858   0.25919   1.000
    C19     C    0.86711   0.47377   0.26018   1.000
    C20     C    0.83164   0.26486   0.29692   1.000
    C21     C    0.08405   0.98955   0.29467   1.000
    C22     C    0.61998   0.51081   0.25928   1.000
    C23     C    0.36698   0.78631   0.26027   1.000
    O24     O    0.16478   0.66627   0.63601   1.000
    O25     O    0.21676   0.74645   0.77229   1.000
    O26     O    0.91104   0.06831   0.77540   1.000
    O27     O    0.86223   0.00075   0.63854   1.000
    O28     O    0.37878   0.55540   0.80817   1.000
    O29     O    0.33361   0.47914   0.67130   1.000
    O30     O    0.68394   0.22105   0.80695   1.000
    O31     O    0.63654   0.15321   0.67013   1.000
    O32     O    0.66413   0.96897   0.63540   1.000
    O33     O    0.71747   0.02526   0.77155   1.000
    O34     O    0.41048   0.70795   0.77521   1.000
    O35     O    0.36271   0.63612   0.63834   1.000
    O36     O    0.87860   0.25347   0.80830   1.000
    O37     O    0.83477   0.19109   0.67143   1.000
    O38     O    0.18420   0.58609   0.80704   1.000
    O39     O    0.13596   0.51697   0.67027   1.000
    O40     O    0.33586   0.03099   0.36456   1.000
    O41     O    0.28252   0.97469   0.22846   1.000
    O42     O    0.58952   0.29202   0.22480   1.000
    O43     O    0.63729   0.36383   0.36168   1.000
    O44     O    0.12139   0.74649   0.19172   1.000
    O45     O    0.16521   0.80888   0.32850   1.000
    O46     O    0.81579   0.41386   0.19297   1.000
    O47     O    0.86402   0.48300   0.32975   1.000
    O48     O    0.83522   0.33369   0.36000   1.000
    O49     O    0.78321   0.25350   0.22771   1.000
    O50     O    0.08895   0.93165   0.22461   1.000
    O51     O    0.13776   0.99921   0.36140   1.000
    O52     O    0.62122   0.44456   0.19184   1.000
    O53     O    0.66635   0.52081   0.32863   1.000
    O54     O    0.31604   0.77890   0.19306   1.000
    O55     O    0.36345   0.84675   0.32987   1.000
loop_
    _geom_bond_atom_site_label_1
    _geom_bond_atom_site_label_2
    _geom_bond_distance
    _geom_bond_site_symmetry_2
    _ccdc_geom_bond_type
    Zn4    O52       2.06626      .   S
    Zn4    O46       2.06431      .   S
    Zn4    O42       2.09681      .   S
    Zn4    O49       2.09368      .   S
    Zn6    O44       2.06678      .   S
    Zn6    O54       2.06414      .   S
    Zn6    O50       2.09556      .   S
    Zn6    O41       2.09666      .   S
    O44    C18       1.27297      .   S
    O52    C22       1.27296      .   S
    O46    C19       1.27693      .   S
    O54    C23       1.27711      .   S
    O50    C21       1.27232      .   S
    O42    C17       1.27142      .   S
    O49    C20       1.27597      .   S
    O41    C16       1.27617  1_565   S
    C18    O45       1.27501      .   S
    C22    O53       1.27609      .   S
    C19    O47       1.27360      .   S
    C23    O55       1.27341      .   S
    C21    O51       1.27246      .   S
    C17    O43       1.27405      .   S
    C20    O48       1.22823      .   S
    C16    O40       1.27259      .   S
    O45    Zn5       2.07040      .   S
    O53    Zn3       2.06987      .   S
    O47    Zn3       2.08971      .   S
    O55    Zn5       2.08906      .   S
    O48    Zn3       2.06984      .   S
    O51    Zn5       2.06049      .   S
    O43    Zn3       2.06145      .   S
    Zn5    O40       2.08710  1_565   S
    O32    Zn7       2.08665  1_565   S
    O32    C12       1.27352      .   S
    Zn7    O27       2.06032      .   S
    Zn7    O31       2.08909      .   S
    Zn7    O37       2.07065      .   S
    Zn1    O24       2.08617      .   S
    Zn1    O35       2.06149      .   S
    Zn1    O39       2.08981      .   S
    Zn1    O29       2.06901      .   S
    O24    C8        1.27265      .   S
    O35    C13       1.27335      .   S
    O27    C9        1.27291      .   S
    O31    C11       1.27350      .   S
    O39    C15       1.27345      .   S
    O29    C10       1.27742      .   S
    O37    C14       1.27591      .   S
    C12    O33       1.27618  1_565   S
    C8     O25       1.27578      .   S
    C13    O34       1.27251      .   S
    C9     O26       1.27288      .   S
    C11    O30       1.27712      .   S
    C15    O38       1.27692      .   S
    C10    O28       1.27296      .   S
    C14    O36       1.27312      .   S
    O33    Zn0       2.09671      .   S
    O25    Zn2       2.09384      .   S
    O34    Zn2       2.09704      .   S
    O26    Zn0       2.09556      .   S
    O30    Zn0       2.06417      .   S
    O38    Zn2       2.06429      .   S
    O28    Zn2       2.06621      .   S
    O36    Zn0       2.06676      .   S
    Zn7    Zn0       2.87267      .   S
    Zn1    Zn2       2.86993      .   S
    Zn3    Zn4       2.86993      .   S
    Zn5    Zn6       2.87250      .   S
