# CIF file generated by openbabel 2.4.90, see http://openbabel.sf.net
data_I
_chemical_name_common ''
_cell_length_a 14.42
_cell_length_b 16.433
_cell_length_c 18.991
_cell_angle_alpha 115.842
_cell_angle_beta 102.848
_cell_angle_gamma 89.993
_space_group_name_H-M_alt 'P 1'
_space_group_name_Hall 'P 1'
loop_
    _symmetry_equiv_pos_as_xyz
    x,y,z
loop_
    _atom_site_label
    _atom_site_type_symbol
    _atom_site_fract_x
    _atom_site_fract_y
    _atom_site_fract_z
    _atom_site_occupancy
    C0      C    0.16834   0.73510   0.70309   1.000
    C1      C    0.91593   0.01040   0.70530   1.000
    C2      C    0.38000   0.48915   0.74073   1.000
    C3      C    0.63301   0.21365   0.73974   1.000
    C4      C    0.66836   0.96728   0.70244   1.000
    C5      C    0.41588   0.69447   0.70505   1.000
    C6      C    0.88044   0.25138   0.74082   1.000
    C7      C    0.13289   0.52618   0.73983   1.000
    C8      C    0.33163   0.03269   0.29757   1.000
    C9      C    0.58412   0.30549   0.29490   1.000
    C10     C    0.11955   0.74858   0.25919   1.000
    C11     C    0.86711   0.47377   0.26018   1.000
    C12     C    0.83164   0.26486   0.29692   1.000
    C13     C    0.08405   0.98955   0.29467   1.000
    C14     C    0.61998   0.51081   0.25928   1.000
    C15     C    0.36698   0.78631   0.26027   1.000
