# CIF file generated by openbabel 2.4.90, see http://openbabel.sf.net
data_I
_chemical_name_common ''
_cell_length_a 20.451
_cell_length_b 24.817
_cell_length_c 15.846
_cell_angle_alpha 89.76
_cell_angle_beta 89.797
_cell_angle_gamma 96.677
_space_group_name_H-M_alt 'P 1'
_space_group_name_Hall 'P 1'
loop_
    _symmetry_equiv_pos_as_xyz
    x,y,z
loop_
    _atom_site_label
    _atom_site_type_symbol
    _atom_site_fract_x
    _atom_site_fract_y
    _atom_site_fract_z
    _atom_site_occupancy
    H0      H    0.30235   0.20987   0.95560   1.000
    H1      H    0.30235   0.70978   0.95586   1.000
    H2      H    0.80240   0.20974   0.95586   1.000
    H3      H    0.80243   0.71051   0.95644   1.000
    H4      H    0.20954   0.09679   0.77511   1.000
    H5      H    0.20963   0.59676   0.77510   1.000
    H6      H    0.70963   0.09677   0.77515   1.000
    H7      H    0.70899   0.59685   0.77717   1.000
    H8      H    0.41881   0.10616   0.81512   1.000
    H9      H    0.41890   0.60623   0.81517   1.000
    H10     H    0.91890   0.10617   0.81513   1.000
    H11     H    0.91831   0.60605   0.81660   1.000
    H12     H    0.44781   0.03991   0.45560   1.000
    H13     H    0.44774   0.53909   0.45484   1.000
    H14     H    0.94773   0.03905   0.45465   1.000
    H15     H    0.94775   0.53941   0.45593   1.000
    H16     H    0.04103   0.15310   0.27352   1.000
    H17     H    0.04095   0.65302   0.27410   1.000
    H18     H    0.54095   0.15359   0.27383   1.000
    H19     H    0.54106   0.65311   0.27368   1.000
    H20     H    0.33139   0.14323   0.31397   1.000
    H21     H    0.33160   0.64327   0.31448   1.000
    H22     H    0.83160   0.14332   0.31445   1.000
    H23     H    0.83150   0.64315   0.31487   1.000
    H24     H    0.19787   0.29022   0.04230   1.000
    H25     H    0.19773   0.78926   0.04348   1.000
    H26     H    0.69770   0.28932   0.04346   1.000
    H27     H    0.69784   0.79005   0.04359   1.000
    H28     H    0.29110   0.40350   0.22225   1.000
    H29     H    0.29109   0.90304   0.22260   1.000
    H30     H    0.79108   0.40303   0.22270   1.000
    H31     H    0.79065   0.90331   0.22389   1.000
    H32     H    0.08171   0.39392   0.18322   1.000
    H33     H    0.08173   0.89365   0.18328   1.000
    H34     H    0.58175   0.39378   0.18321   1.000
    H35     H    0.58146   0.89411   0.18349   1.000
    H36     H    0.05217   0.46038   0.54405   1.000
    H37     H    0.05203   0.95996   0.54350   1.000
    H38     H    0.55211   0.46001   0.54370   1.000
    H39     H    0.55205   0.96017   0.54348   1.000
    H40     H    0.45918   0.34660   0.72601   1.000
    H41     H    0.45903   0.84657   0.72543   1.000
    H42     H    0.95902   0.34681   0.72590   1.000
    H43     H    0.95916   0.84659   0.72591   1.000
    H44     H    0.16849   0.35679   0.68529   1.000
    H45     H    0.16863   0.85677   0.68512   1.000
    H46     H    0.66868   0.35683   0.68541   1.000
    H47     H    0.66848   0.85653   0.68445   1.000
    C48     C    0.42812   0.18589   0.93280   1.000
    C49     C    0.42817   0.68594   0.93281   1.000
    C50     C    0.92820   0.18589   0.93281   1.000
    C51     C    0.92809   0.68619   0.93339   1.000
    C52     C    0.18598   0.17672   0.88443   1.000
    C53     C    0.18601   0.67668   0.88447   1.000
    C54     C    0.68604   0.17668   0.88447   1.000
    C55     C    0.68588   0.67732   0.88590   1.000
    C56     C    0.31894   0.05341   0.72556   1.000
    C57     C    0.31901   0.55336   0.72575   1.000
    C58     C    0.81900   0.05335   0.72568   1.000
    C59     C    0.81854   0.55322   0.72768   1.000
    C60     C    0.36735   0.16019   0.89104   1.000
    C61     C    0.36739   0.66021   0.89113   1.000
    C62     C    0.86742   0.16017   0.89110   1.000
    C63     C    0.86714   0.66045   0.89215   1.000
    C64     C    0.30629   0.17783   0.90975   1.000
    C65     C    0.30632   0.67780   0.90988   1.000
    C66     C    0.80635   0.17777   0.90987   1.000
    C67     C    0.80620   0.67828   0.91084   1.000
    C68     C    0.24967   0.15526   0.86749   1.000
    C69     C    0.24972   0.65523   0.86757   1.000
    C70     C    0.74974   0.15522   0.86750   1.000
    C71     C    0.74944   0.65561   0.86000   1.000
    C72     C    0.25362   0.11434   0.80789   1.000
    C73     C    0.25369   0.61432   0.80790   1.000
    C74     C    0.75370   0.11431   0.80794   1.000
    C75     C    0.75316   0.61443   0.80972   1.000
    C76     C    0.31457   0.09644   0.78966   1.000
    C77     C    0.31465   0.59644   0.78975   1.000
    C78     C    0.81465   0.09642   0.78972   1.000
    C79     C    0.81403   0.59639   0.79150   1.000
    C80     C    0.37144   0.11965   0.83059   1.000
    C81     C    0.37152   0.61968   0.83065   1.000
    C82     C    0.87153   0.11964   0.83062   1.000
    C83     C    0.87102   0.61967   0.83208   1.000
    C84     C    0.50318   0.86426   0.69230   1.000
    C85     C    0.06416   0.34672   0.71111   1.000
    C86     C    0.06430   0.84660   0.71090   1.000
    C87     C    0.56433   0.34664   0.71115   1.000
    C88     C    0.32199   0.06324   0.43260   1.000
    C89     C    0.32205   0.56307   0.43270   1.000
    C90     C    0.82205   0.06310   0.43265   1.000
    C91     C    0.82202   0.56321   0.43352   1.000
    C92     C    0.06425   0.07244   0.38275   1.000
    C93     C    0.06425   0.57266   0.38386   1.000
    C94     C    0.56436   0.07344   0.38402   1.000
    C95     C    0.56427   0.57246   0.38292   1.000
    C96     C    0.43137   0.19670   0.22422   1.000
    C97     C    0.43153   0.69653   0.22440   1.000
    C98     C    0.93150   0.19656   0.22440   1.000
    C99     C    0.93140   0.69637   0.22467   1.000
    C100    C    0.38279   0.08929   0.39040   1.000
    C101    C    0.38288   0.58898   0.39041   1.000
    C102    C    0.88287   0.08898   0.39030   1.000
    C103    C    0.88284   0.58907   0.39114   1.000
    C104    C    0.44391   0.07195   0.40935   1.000
    C105    C    0.44391   0.57132   0.40887   1.000
    C106    C    0.94390   0.07128   0.40869   1.000
    C107    C    0.94389   0.57151   0.40976   1.000
    C108    C    0.50066   0.09480   0.36685   1.000
    C109    C    0.50066   0.59411   0.36630   1.000
    C110    C    0.00000   0.09409   0.36613   1.000
    C111    C    0.00000   0.59423   0.36707   1.000
    C112    C    0.49678   0.13580   0.30684   1.000
    C113    C    0.49688   0.63535   0.30660   1.000
    C114    C    0.99686   0.13534   0.30651   1.000
    C115    C    0.99679   0.63531   0.30717   1.000
    O116    O    0.01639   0.32580   0.09214   1.000
    O117    O    0.01633   0.82516   0.09240   1.000
    O118    O    0.51633   0.32553   0.09220   1.000
    O119    O    0.51629   0.82598   0.09239   1.000
    O120    O    0.07731   0.27976   0.00706   1.000
    C121    C    0.43577   0.15347   0.28850   1.000
    C122    C    0.43594   0.65325   0.28864   1.000
    C123    C    0.93592   0.15325   0.28855   1.000
    C124    C    0.93583   0.65316   0.28902   1.000
    C125    C    0.37877   0.12991   0.32961   1.000
    C126    C    0.37893   0.62976   0.32984   1.000
    C127    C    0.87892   0.12977   0.32975   1.000
    C128    C    0.87885   0.62970   0.33031   1.000
    C129    C    0.07203   0.31387   0.06631   1.000
    C130    C    0.07204   0.81340   0.06650   1.000
    C131    C    0.57199   0.31357   0.06650   1.000
    C132    C    0.57196   0.81404   0.06674   1.000
    C133    C    0.31440   0.32351   0.11264   1.000
    C134    C    0.31425   0.82258   0.11393   1.000
    C135    C    0.81424   0.32259   0.11394   1.000
    C136    C    0.81417   0.82316   0.11506   1.000
    C137    C    0.18148   0.44681   0.27219   1.000
    C138    C    0.18151   0.94663   0.27212   1.000
    C139    C    0.68151   0.44665   0.27216   1.000
    C140    C    0.68120   0.94700   0.27265   1.000
    C141    C    0.13299   0.33984   0.10723   1.000
    C142    C    0.13295   0.83925   0.10778   1.000
    C143    C    0.63294   0.33936   0.10772   1.000
    C144    C    0.63286   0.83984   0.10800   1.000
    C145    C    0.19402   0.32229   0.08814   1.000
    C146    C    0.19392   0.82149   0.08905   1.000
    C147    C    0.69390   0.32155   0.08900   1.000
    C148    C    0.69390   0.82214   0.08938   1.000
    C149    C    0.25077   0.34500   0.12996   1.000
    C150    C    0.25066   0.84422   0.13088   1.000
    C151    C    0.75065   0.34425   0.13090   1.000
    C152    C    0.75051   0.84474   0.13165   1.000
    C153    C    0.24695   0.38594   0.18963   1.000
    C154    C    0.24691   0.88542   0.19010   1.000
    C155    C    0.74691   0.38544   0.19015   1.000
    C156    C    0.74659   0.88579   0.19100   1.000
    C157    C    0.18603   0.40381   0.20810   1.000
    C158    C    0.18602   0.90342   0.20835   1.000
    C159    C    0.68602   0.40347   0.20836   1.000
    C160    C    0.68568   0.90382   0.20895   1.000
    C161    C    0.12905   0.38048   0.16753   1.000
    C162    C    0.12904   0.88006   0.16700   1.000
    C163    C    0.62905   0.38017   0.16770   1.000
    C164    C    0.62881   0.88056   0.16813   1.000
    C165    C    0.17793   0.43671   0.56664   1.000
    C166    C    0.17792   0.93662   0.56632   1.000
    C167    C    0.67800   0.43672   0.56660   1.000
    C168    C    0.67788   0.93661   0.56607   1.000
    C169    C    0.43569   0.42664   0.61576   1.000
    C170    C    0.43563   0.92676   0.61550   1.000
    C171    C    0.93569   0.42710   0.61609   1.000
    C172    C    0.93565   0.92664   0.61569   1.000
    C173    C    0.06861   0.30351   0.77546   1.000
    C174    C    0.06875   0.80345   0.77540   1.000
    C175    C    0.56876   0.30344   0.77551   1.000
    C176    C    0.56863   0.80338   0.77497   1.000
    C177    C    0.11712   0.41081   0.60897   1.000
    C178    C    0.11713   0.91063   0.60864   1.000
    C179    C    0.61721   0.41071   0.60892   1.000
    C180    C    0.61706   0.91058   0.60825   1.000
    C181    C    0.05605   0.42832   0.59028   1.000
    C182    C    0.05600   0.92799   0.58987   1.000
    C183    C    0.55608   0.42804   0.59008   1.000
    C184    C    0.55597   0.92806   0.58961   1.000
    C185    C    0.99933   0.40556   0.63295   1.000
    C186    C    0.99934   0.90523   0.63260   1.000
    C187    C    0.49939   0.40527   0.63281   1.000
    C188    C    0.49929   0.90527   0.63234   1.000
    C189    C    0.00318   0.36452   0.69292   1.000
    C190    C    0.00328   0.86430   0.69276   1.000
    C191    C    0.50332   0.36433   0.69290   1.000
    C192    C    0.56416   0.84646   0.71041   1.000
    C193    C    0.12113   0.37020   0.66983   1.000
    C194    C    0.12123   0.87010   0.66961   1.000
    C195    C    0.62129   0.37016   0.66986   1.000
    C196    C    0.62110   0.86993   0.66904   1.000
    O197    O    0.48389   0.17396   0.90743   1.000
    O198    O    0.48392   0.67404   0.90741   1.000
    O199    O    0.98396   0.17397   0.90740   1.000
    O200    O    0.98374   0.67419   0.90767   1.000
    O201    O    0.42257   0.21979   0.99227   1.000
    O202    O    0.42265   0.71988   0.99227   1.000
    O203    O    0.92267   0.21982   0.99220   1.000
    O204    O    0.92275   0.72014   0.99282   1.000
    O205    O    0.18313   0.21322   0.94103   1.000
    O206    O    0.18314   0.71320   0.94102   1.000
    O207    O    0.68317   0.21319   0.94103   1.000
    O208    O    0.68351   0.71493   0.94080   1.000
    O209    O    0.13446   0.16017   0.84107   1.000
    O210    O    0.13451   0.66010   0.84100   1.000
    O211    O    0.63454   0.16012   0.84107   1.000
    O212    O    0.63389   0.65983   0.84409   1.000
    O213    O    0.26652   0.03015   0.69098   1.000
    O214    O    0.26655   0.52997   0.69146   1.000
    O215    O    0.76655   0.03001   0.69133   1.000
    O216    O    0.76631   0.53014   0.69244   1.000
    O217    O    0.37546   0.03963   0.70426   1.000
    O218    O    0.37554   0.53965   0.70427   1.000
    O219    O    0.87552   0.03963   0.70423   1.000
    O220    O    0.87513   0.53926   0.70717   1.000
    O221    O    0.26614   0.07440   0.40675   1.000
    O222    O    0.26621   0.57432   0.40689   1.000
    O223    O    0.76621   0.07441   0.40692   1.000
    O224    O    0.76622   0.57420   0.40718   1.000
    O225    O    0.32766   0.02984   0.49304   1.000
    O226    O    0.32767   0.52971   0.49320   1.000
    O227    O    0.82768   0.02975   0.49316   1.000
    O228    O    0.82760   0.53023   0.49458   1.000
    O229    O    0.06644   0.03466   0.43784   1.000
    O230    O    0.06671   0.53538   0.43974   1.000
    O231    O    0.56692   0.03665   0.44064   1.000
    O232    O    0.56646   0.53471   0.43806   1.000
    O233    O    0.11637   0.09008   0.34059   1.000
    O234    O    0.11612   0.58989   0.34087   1.000
    O235    O    0.61613   0.09024   0.34056   1.000
    O236    O    0.61637   0.59005   0.34068   1.000
    O237    O    0.48369   0.21992   0.18867   1.000
    O238    O    0.48386   0.71978   0.18880   1.000
    O239    O    0.98384   0.21981   0.18883   1.000
    O240    O    0.98370   0.71964   0.18909   1.000
    O241    O    0.37481   0.21065   0.20371   1.000
    O242    O    0.37499   0.71055   0.20408   1.000
    O243    O    0.87497   0.21057   0.20400   1.000
    O244    O    0.87484   0.71033   0.20422   1.000
    O245    O    0.07746   0.77956   0.00701   1.000
    O246    O    0.57733   0.27959   0.00710   1.000
    O247    O    0.57730   0.77999   0.00741   1.000
    O248    O    0.31710   0.28686   0.05630   1.000
    O249    O    0.31660   0.78496   0.05908   1.000
    O250    O    0.81658   0.28498   0.05907   1.000
    O251    O    0.81700   0.78652   0.05870   1.000
    O252    O    0.36606   0.34017   0.15575   1.000
    O253    O    0.36625   0.84011   0.15573   1.000
    O254    O    0.86624   0.34011   0.15573   1.000
    O255    O    0.86563   0.83973   0.15852   1.000
    O256    O    0.23370   0.46983   0.30755   1.000
    O257    O    0.23375   0.96970   0.30741   1.000
    O258    O    0.73374   0.46971   0.30748   1.000
    O259    O    0.73349   0.97005   0.30777   1.000
    O260    O    0.12488   0.46072   0.29281   1.000
    O261    O    0.12495   0.96065   0.29258   1.000
    O262    O    0.62494   0.46065   0.29265   1.000
    O263    O    0.62463   0.96099   0.29317   1.000
    O264    O    0.23373   0.42557   0.59276   1.000
    O265    O    0.23372   0.92562   0.59263   1.000
    O266    O    0.73384   0.42576   0.59285   1.000
    O267    O    0.73366   0.92567   0.59256   1.000
    O268    O    0.17237   0.46987   0.50582   1.000
    O269    O    0.17235   0.96968   0.50535   1.000
    O270    O    0.67236   0.46982   0.50570   1.000
    O271    O    0.67234   0.96967   0.50509   1.000
    O272    O    0.43312   0.46336   0.55904   1.000
    O273    O    0.43307   0.96355   0.55893   1.000
    O274    O    0.93320   0.46425   0.56000   1.000
    O275    O    0.93309   0.96338   0.55900   1.000
    O276    O    0.38393   0.40990   0.65927   1.000
    O277    O    0.38390   0.90999   0.65910   1.000
    O278    O    0.88385   0.40999   0.65920   1.000
    O279    O    0.88390   0.90990   0.65920   1.000
    O280    O    0.01631   0.28020   0.81102   1.000
    O281    O    0.01643   0.78018   0.81098   1.000
    O282    O    0.51644   0.28016   0.81105   1.000
    O283    O    0.51633   0.78031   0.81088   1.000
    O284    O    0.12518   0.28956   0.79590   1.000
    O285    O    0.12530   0.78952   0.79591   1.000
    O286    O    0.62531   0.28950   0.79600   1.000
    O287    O    0.62516   0.78940   0.79530   1.000
loop_
    _geom_bond_atom_site_label_1
    _geom_bond_atom_site_label_2
    _geom_bond_distance
    _geom_bond_site_symmetry_2
    _ccdc_geom_bond_type
    O245   C130      1.27815      .   S
    O120   C129      1.27947      .   S
    O246   C131      1.27916      .   S
    O247   C132      1.27960      .   S
    H24    C145      1.08919      .   S
    H26    C147      1.08886      .   S
    H25    C146      1.08923      .   S
    H27    C148      1.08920      .   S
    O248   C133      1.28291      .   S
    O251   C136      1.28314      .   S
    O250   C135      1.28318      .   S
    O249   C134      1.28309      .   S
    C129   O116      1.27509      .   S
    C129   C141      1.48753      .   S
    C130   O117      1.27543      .   S
    C130   C142      1.48803      .   S
    C131   O118      1.27522      .   S
    C131   C143      1.48777      .   S
    C132   O119      1.27493      .   S
    C132   C144      1.48739      .   S
    C145   C141      1.40132      .   S
    C145   C149      1.40010      .   S
    C147   C143      1.40157      .   S
    C147   C151      1.40050      .   S
    C146   C142      1.40136      .   S
    C146   C150      1.40010      .   S
    C148   C144      1.40150      .   S
    C148   C152      1.40035      .   S
    C141   C161      1.40106      .   S
    C143   C163      1.40045      .   S
    C142   C162      1.39254      .   S
    C144   C164      1.40103      .   S
    C133   C149      1.48773      .   S
    C133   O252      1.28816      .   S
    C134   C150      1.48760      .   S
    C134   O253      1.28789      .   S
    C135   C151      1.48778      .   S
    C135   O254      1.28785      .   S
    C136   C152      1.48718      .   S
    C136   O255      1.28771      .   S
    C149   C153      1.39928      .   S
    C150   C154      1.39914      .   S
    C151   C155      1.39923      .   S
    C152   C156      1.39821      .   S
    C162   H33       1.09143      .   S
    C162   C158      1.40517      .   S
    C161   H32       1.08853      .   S
    C161   C157      1.39912      .   S
    C163   H34       1.08874      .   S
    C163   C159      1.39957      .   S
    C164   H35       1.08852      .   S
    C164   C160      1.39883      .   S
    O237   C96       1.28219      .   S
    O238   C97       1.28287      .   S
    O239   C98       1.28282      .   S
    O240   C99       1.28248      .   S
    C153   C157      1.40074      .   S
    C153   H28       1.08902      .   S
    C154   C158      1.40073      .   S
    C154   H29       1.08897      .   S
    C155   C159      1.40074      .   S
    C155   H30       1.08904      .   S
    C156   C160      1.40037      .   S
    C156   H31       1.08926      .   S
    O241   C96       1.28767      .   S
    O243   C98       1.28733      .   S
    O242   C97       1.28705      .   S
    O244   C99       1.28768      .   S
    C157   C137      1.48673      .   S
    C158   C138      1.48686      .   S
    C159   C139      1.48680      .   S
    C160   C140      1.48573      .   S
    C96    C121      1.48677      .   S
    C97    C122      1.48745      .   S
    C98    C123      1.48674      .   S
    C99    C124      1.48728      .   S
    C138   O261      1.28693      .   S
    C138   O257      1.28313      .   S
    C139   O262      1.28696      .   S
    C139   O258      1.28314      .   S
    C137   O260      1.28707      .   S
    C137   O256      1.28298      .   S
    C140   O263      1.28700      .   S
    C140   O259      1.28264      .   S
    H16    C114      1.08899  1_455   S
    H19    C113      1.08856      .   S
    H18    C112      1.08907      .   S
    H17    C115      1.08904  1_455   S
    C121   C112      1.40087      .   S
    C121   C125      1.39933      .   S
    C123   C114      1.40083      .   S
    C123   C127      1.39926      .   S
    C122   C113      1.40065      .   S
    C122   C126      1.39938      .   S
    C124   C115      1.40097      .   S
    C124   C128      1.39940      .   S
    C114   C110      1.39714  1_655   S
    C113   C109      1.39963      .   S
    C112   C108      1.39894      .   S
    C115   C111      1.39735  1_655   S
    H20    C125      1.08862      .   S
    H22    C127      1.08858      .   S
    H21    C126      1.08860      .   S
    H23    C128      1.08860      .   S
    C125   C100      1.40092      .   S
    C127   C102      1.40125      .   S
    C126   C101      1.40122      .   S
    C128   C103      1.40146      .   S
    O235   C94       1.28795      .   S
    O233   C92       1.28761      .   S
    O236   C95       1.28767      .   S
    O234   C93       1.28804      .   S
    C110   C92       1.50006      .   S
    C110   C106      1.38994  1_455   S
    C109   C95       1.48801      .   S
    C109   C105      1.40030      .   S
    C108   C94       1.48793      .   S
    C108   C104      1.40011      .   S
    C111   C93       1.49957      .   S
    C111   C107      1.39037  1_455   S
    C92    O229      1.28303      .   S
    C95    O232      1.28305      .   S
    C93    O230      1.28331      .   S
    C94    O231      1.28293      .   S
    C102   C106      1.40155      .   S
    C102   C90       1.48818      .   S
    C100   C104      1.40156      .   S
    C100   C88       1.48818      .   S
    C101   C105      1.40158      .   S
    C101   C89       1.48821      .   S
    C103   C107      1.40144      .   S
    C103   C91       1.48828      .   S
    O221   C88       1.27484      .   S
    O222   C89       1.27500      .   S
    O223   C90       1.27505      .   S
    O224   C91       1.27494      .   S
    C106   H14       1.08922      .   S
    C105   H13       1.08915      .   S
    C104   H12       1.08911      .   S
    C107   H15       1.08919      .   S
    C88    O225      1.27847      .   S
    C90    O227      1.27818      .   S
    C89    O226      1.27824      .   S
    C91    O228      1.27863      .   S
    O271   C168      1.27874      .   S
    O269   C166      1.27888      .   S
    O270   C167      1.27889      .   S
    O268   C165      1.27858      .   S
    H39    C184      1.08914      .   S
    H37    C182      1.08917      .   S
    H38    C183      1.08924      .   S
    H36    C181      1.08922      .   S
    O273   C170      1.28238      .   S
    O275   C172      1.28287      .   S
    O272   C169      1.28293      .   S
    O274   C171      1.28343      .   S
    C168   O267      1.27498      .   S
    C168   C180      1.48827      .   S
    C166   O265      1.27491      .   S
    C166   C178      1.48833      .   S
    C167   O266      1.27502      .   S
    C167   C179      1.48856      .   S
    C165   O264      1.27491      .   S
    C165   C177      1.48818      .   S
    C184   C180      1.40133      .   S
    C184   C188      1.40025      .   S
    C182   C178      1.40134      .   S
    C182   C186      1.39983  1_455   S
    C183   C179      1.40143      .   S
    C183   C187      1.40024      .   S
    C181   C177      1.40142      .   S
    C181   C185      1.40014  1_455   S
    C180   C196      1.40154      .   S
    C178   C194      1.40162      .   S
    C179   C195      1.40153      .   S
    C177   C193      1.40147      .   S
    C170   C188      1.48765      .   S
    C170   O277      1.28823      .   S
    C172   C186      1.48751      .   S
    C172   O279      1.28770      .   S
    C169   C187      1.48775      .   S
    C169   O276      1.28785      .   S
    C171   C185      1.48799      .   S
    C171   O278      1.28793      .   S
    C188   C84       1.39876      .   S
    C186   C190      1.39948  1_655   S
    C187   C191      1.39883      .   S
    C185   C189      1.39913  1_655   S
    C196   H47       1.08859      .   S
    C196   C192      1.39949      .   S
    C194   H45       1.08866      .   S
    C194   C86       1.39902      .   S
    C193   H44       1.08857      .   S
    C193   C85       1.39946      .   S
    C195   H46       1.08862      .   S
    C195   C87       1.39954      .   S
    O213   C56       1.28270      .   S
    O215   C58       1.28252      .   S
    O214   C57       1.28250      .   S
    C84    C192      1.40077      .   S
    C84    H41       1.08903      .   S
    O216   C59       1.28278      .   S
    C190   C86       1.40065      .   S
    C190   H43       1.08901  1_455   S
    C191   C87       1.40084      .   S
    C191   H40       1.08903      .   S
    C189   C85       1.40099      .   S
    C189   H42       1.08837  1_455   S
    O219   C58       1.28739      .   S
    O217   C56       1.28736      .   S
    O218   C57       1.28742      .   S
    O220   C59       1.28717      .   S
    C192   C176      1.48723      .   S
    C86    C174      1.48790      .   S
    C85    C173      1.48739      .   S
    C87    C175      1.48710      .   S
    C56    C76       1.48682      .   S
    C58    C78       1.48675      .   S
    C57    C77       1.48664      .   S
    C59    C79       1.48663      .   S
    C176   O287      1.28683      .   S
    C176   O283      1.28304      .   S
    H5     C73       1.08909      .   S
    H4     C72       1.08904      .   S
    H6     C74       1.08898      .   S
    C174   O285      1.28733      .   S
    C174   O281      1.28273      .   S
    C173   O284      1.28753      .   S
    C173   O280      1.28260      .   S
    C175   O286      1.28734      .   S
    C175   O282      1.28270      .   S
    H7     C75       1.08903      .   S
    C76    C72       1.40063      .   S
    C76    C80       1.39932      .   S
    C78    C74       1.40058      .   S
    C78    C82       1.39916      .   S
    C77    C73       1.40042      .   S
    C77    C81       1.39920      .   S
    C79    C75       1.40070      .   S
    C79    C83       1.39903      .   S
    C72    C68       1.39868      .   S
    C73    C69       1.39933      .   S
    C74    C70       1.39804      .   S
    C75    C71       1.30744      .   S
    H8     C80       1.08859      .   S
    H10    C82       1.08856      .   S
    H9     C81       1.08859      .   S
    H11    C83       1.08852      .   S
    C80    C60       1.40148      .   S
    C82    C62       1.40155      .   S
    C81    C61       1.40159      .   S
    C83    C63       1.40088      .   S
    O210   C53       1.28838      .   S
    O211   C54       1.28765      .   S
    O209   C52       1.28758      .   S
    O212   C55       1.28762      .   S
    C71    C55       1.51965      .   S
    C71    C67       1.47361      .   S
    C68    C52       1.48755      .   S
    C68    C64       1.40024      .   S
    C70    C54       1.48774      .   S
    C70    C66       1.40074      .   S
    C69    C53       1.48751      .   S
    C69    C65       1.40030      .   S
    C52    O205      1.28327      .   S
    C54    O207      1.28317      .   S
    C53    O206      1.28315      .   S
    C55    O208      1.28339      .   S
    C60    C64       1.40152      .   S
    C60    C48       1.48804      .   S
    C62    C66       1.40154      .   S
    C62    C50       1.48795      .   S
    C61    C65       1.40147      .   S
    C61    C49       1.48790      .   S
    C63    C67       1.40139      .   S
    C63    C51       1.48747      .   S
    O199   C50       1.27539      .   S
    O198   C49       1.27493      .   S
    O197   C48       1.27524      .   S
    O200   C51       1.27542      .   S
    C64    H0        1.08892      .   S
    C66    H2        1.08925      .   S
    C65    H1        1.08922      .   S
    C67    H3        1.08927      .   S
    C48    O201      1.27940      .   S
    C50    O203      1.27900      .   S
    C49    O202      1.27975      .   S
    C51    O204      1.27904      .   S
