# CIF file generated by openbabel 2.4.90, see http://openbabel.sf.net
data_I
_chemical_name_common ''
_cell_length_a 20.451
_cell_length_b 24.817
_cell_length_c 15.846
_cell_angle_alpha 89.76
_cell_angle_beta 89.797
_cell_angle_gamma 96.677
_space_group_name_H-M_alt 'P 1'
_space_group_name_Hall 'P 1'
loop_
    _symmetry_equiv_pos_as_xyz
    x,y,z
loop_
    _atom_site_label
    _atom_site_type_symbol
    _atom_site_fract_x
    _atom_site_fract_y
    _atom_site_fract_z
    _atom_site_occupancy
    Y0      Y    0.07940   0.72864   0.89529   1.000
    Y1      Y    0.57943   0.22863   0.89538   1.000
    Y2      Y    0.57924   0.72916   0.89573   1.000
    Y3      Y    0.17072   0.02036   0.39273   1.000
    Y4      Y    0.17064   0.52044   0.39309   1.000
    Y5      Y    0.67047   0.02086   0.39313   1.000
    Y6      Y    0.67073   0.52035   0.39289   1.000
    Y7      Y    0.42062   0.27104   0.10356   1.000
    Y8      Y    0.42095   0.77083   0.10389   1.000
    Y9      Y    0.92096   0.27084   0.10382   1.000
    Y10     Y    0.92061   0.77100   0.10462   1.000
    Y11     Y    0.32951   0.47909   0.60582   1.000
    Y12     Y    0.32946   0.97920   0.60560   1.000
    Y13     Y    0.82941   0.47947   0.60701   1.000
    Y14     Y    0.82947   0.97911   0.60570   1.000
    Y15     Y    0.07942   0.22874   0.89539   1.000
