# CIF file generated by openbabel 2.4.90, see http://openbabel.sf.net
data_I
_chemical_name_common ''
_cell_length_a 20.451
_cell_length_b 24.817
_cell_length_c 15.846
_cell_angle_alpha 89.76
_cell_angle_beta 89.797
_cell_angle_gamma 96.677
_space_group_name_H-M_alt 'P 1'
_space_group_name_Hall 'P 1'
loop_
    _symmetry_equiv_pos_as_xyz
    x,y,z
loop_
    _atom_site_label
    _atom_site_type_symbol
    _atom_site_fract_x
    _atom_site_fract_y
    _atom_site_fract_z
    _atom_site_occupancy
    Zr0     Zr   0.07942   0.22874   0.89539   1.000
    Zr1     Zr   0.07940   0.72864   0.89529   1.000
    Zr2     Zr   0.57943   0.22863   0.89538   1.000
    Zr3     Zr   0.57924   0.72916   0.89573   1.000
    Zr4     Zr   0.17072   0.02036   0.39273   1.000
    Zr5     Zr   0.17064   0.52044   0.39309   1.000
    Zr6     Zr   0.67047   0.02086   0.39313   1.000
    Zr7     Zr   0.67073   0.52035   0.39289   1.000
    Zr8     Zr   0.42062   0.27104   0.10356   1.000
    Zr9     Zr   0.42095   0.77083   0.10389   1.000
    Zr10    Zr   0.92096   0.27084   0.10382   1.000
    Zr11    Zr   0.92061   0.77100   0.10462   1.000
    Zr12    Zr   0.32951   0.47909   0.60582   1.000
    Zr13    Zr   0.32946   0.97920   0.60560   1.000
    Zr14    Zr   0.82941   0.47947   0.60701   1.000
    Zr15    Zr   0.82947   0.97911   0.60570   1.000
    N16     N    0.81078   0.13827   0.84795   1.000
    O17     O    0.92123   0.16981   0.87467   1.000
    O18     O    0.86629   0.19180   0.94798   1.000
    N19     N    0.31071   0.13830   0.84789   1.000
    O20     O    0.36615   0.19186   0.94790   1.000
    O21     O    0.42118   0.16980   0.87465   1.000
    N22     N    0.93956   0.11109   0.34687   1.000
    O23     O    0.82895   0.07936   0.37345   1.000
    O24     O    0.88407   0.05776   0.44815   1.000
    N25     N    0.43955   0.11150   0.34718   1.000
    O26     O    0.32899   0.07944   0.37346   1.000
    O27     O    0.38405   0.05801   0.44825   1.000
    N28     N    0.18962   0.86125   0.15052   1.000
    O29     O    0.07905   0.82967   0.12451   1.000
    O30     O    0.13402   0.80767   0.05083   1.000
    N31     N    0.43961   0.61108   0.34697   1.000
    O32     O    0.38410   0.55774   0.44824   1.000
    O33     O    0.32902   0.57923   0.37348   1.000
    N34     N    0.68944   0.86177   0.15114   1.000
    O35     O    0.63386   0.80817   0.05135   1.000
    O36     O    0.57903   0.83009   0.12464   1.000
    N37     N    0.68961   0.36132   0.15056   1.000
    O38     O    0.63399   0.30772   0.05090   1.000
    O39     O    0.57904   0.32980   0.12422   1.000
    N40     N    0.93951   0.61114   0.34762   1.000
    O41     O    0.82899   0.57921   0.37383   1.000
    O42     O    0.88401   0.55799   0.44921   1.000
    N43     N    0.31076   0.63829   0.84797   1.000
    O44     O    0.36628   0.69182   0.94803   1.000
    O45     O    0.42117   0.66995   0.87477   1.000
    N46     N    0.56038   0.88851   0.65187   1.000
    O47     O    0.67097   0.92045   0.62550   1.000
    O48     O    0.61589   0.94189   0.55049   1.000
    N49     N    0.06042   0.38871   0.65246   1.000
    O50     O    0.11596   0.44194   0.55096   1.000
    O51     O    0.17102   0.42052   0.62587   1.000
    N52     N    0.18966   0.36180   0.15006   1.000
    O53     O    0.07917   0.33006   0.12402   1.000
    O54     O    0.13401   0.30802   0.05064   1.000
    N55     N    0.06046   0.88851   0.65219   1.000
    O56     O    0.17102   0.92046   0.62565   1.000
    O57     O    0.11600   0.94177   0.55061   1.000
    N58     N    0.81048   0.63853   0.84880   1.000
    O59     O    0.86608   0.69205   0.94876   1.000
    O60     O    0.92102   0.66997   0.87514   1.000
    N61     N    0.56050   0.38855   0.65237   1.000
    O62     O    0.61602   0.44182   0.55083   1.000
    O63     O    0.67106   0.42058   0.62615   1.000
    O64     O    0.71496   0.17296   0.87058   1.000
    O65     O    0.56783   0.32264   0.75091   1.000
    O66     O    0.43240   0.67704   0.24857   1.000
    O67     O    0.28541   0.82647   0.12808   1.000
    O68     O    0.21491   0.17301   0.87056   1.000
    O69     O    0.06775   0.32276   0.75094   1.000
    O70     O    0.68210   0.92748   0.24897   1.000
    O71     O    0.53527   0.07683   0.36952   1.000
    O72     O    0.81777   0.57280   0.75111   1.000
    O73     O    0.96469   0.42350   0.63038   1.000
    O74     O    0.21493   0.67297   0.87056   1.000
    O75     O    0.06779   0.82263   0.75078   1.000
    O76     O    0.78539   0.32651   0.12808   1.000
    O77     O    0.93237   0.17705   0.24849   1.000
    O78     O    0.31802   0.57262   0.74991   1.000
    O79     O    0.46476   0.42321   0.62993   1.000
    O80     O    0.78520   0.82692   0.12888   1.000
    O81     O    0.93223   0.67706   0.24913   1.000
    O82     O    0.68232   0.42704   0.24852   1.000
    O83     O    0.53534   0.57622   0.36905   1.000
    O84     O    0.31797   0.07267   0.74975   1.000
    O85     O    0.46468   0.92325   0.62959   1.000
    O86     O    0.81801   0.07262   0.74985   1.000
    O87     O    0.96472   0.92319   0.62979   1.000
    O88     O    0.43224   0.17733   0.24853   1.000
    O89     O    0.28538   0.32704   0.12743   1.000
    O90     O    0.03531   0.07623   0.36892   1.000
    O91     O    0.18233   0.92701   0.24844   1.000
    O92     O    0.03527   0.57634   0.36966   1.000
    O93     O    0.18231   0.42733   0.24835   1.000
    O94     O    0.71472   0.67340   0.87145   1.000
    O95     O    0.56769   0.82276   0.75064   1.000
loop_
    _geom_bond_atom_site_label_1
    _geom_bond_atom_site_label_2
    _geom_bond_distance
    _geom_bond_site_symmetry_2
    _ccdc_geom_bond_type
    N16    O17       2.34380      .   S
    Zr0    O17       3.40935  1_455   S
    N16    O18       2.29043      .   S
    Zr10   O18       3.27805  1_554   S
    N19    O20       2.28991      .   S
    Zr8    O20       3.27675  1_554   S
    N19    O21       2.34399      .   S
    Zr2    O21       3.40972      .   S
    N22    O23       2.34323      .   S
    Zr6    O23       3.40660      .   S
    N22    O24       2.28803      .   S
    Zr15   O24       3.27439  1_565   S
    N25    O26       2.34331      .   S
    Zr4    O26       3.40659      .   S
    N25    O27       2.28788      .   S
    Zr13   O27       3.27426  1_565   S
    N28    O29       2.34414      .   S
    Zr11   O29       3.41052  1_655   S
    N28    O30       2.28793      .   S
    Zr1    O30       3.27428  1_556   S
    N31    O32       2.28824      .   S
    Zr12   O32       3.27472      .   S
    N31    O33       2.34341      .   S
    Zr5    O33       3.40685      .   S
    N34    O35       2.28919      .   S
    Zr3    O35       3.27482  1_556   S
    N34    O36       2.34302      .   S
    Zr9    O36       3.41003      .   S
    N37    O38       2.28814      .   S
    Zr2    O38       3.27426  1_556   S
    N37    O39       2.34454      .   S
    Zr8    O39       3.41218      .   S
    N40    O41       2.34163      .   S
    Zr7    O41       3.40460      .   S
    N40    O42       2.28919      .   S
    Zr14   O42       3.27576      .   S
    N43    O44       2.29071      .   S
    Zr9    O44       3.27796  1_554   S
    N43    O45       2.34375      .   S
    Zr3    O45       3.40978      .   S
    N46    O47       2.34345      .   S
    Zr15   O47       3.40828      .   S
    N46    O48       2.28993      .   S
    Zr6    O48       3.27645  1_545   S
    N49    O50       2.28954      .   S
    Zr5    O50       3.27669      .   S
    N49    O51       2.34351      .   S
    Zr12   O51       3.40778      .   S
    N52    O53       2.34354      .   S
    Zr10   O53       3.41120  1_655   S
    N52    O54       2.28799      .   S
    Zr0    O54       3.27405  1_556   S
    N55    O56       2.34351      .   S
    Zr13   O56       3.40808      .   S
    N55    O57       2.29079      .   S
    Zr4    O57       3.27844  1_545   S
    N58    O59       2.29027      .   S
    Zr11   O59       3.27638  1_554   S
    N58    O60       2.34380      .   S
    Zr1    O60       3.40983  1_455   S
    N61    O62       2.29033      .   S
    Zr7    O62       3.27804      .   S
    N61    O63       2.34300      .   S
    Zr14   O63       3.40642      .   S
    Zr2    O64       3.26082      .   S
    N16    O64       2.25815      .   S
    Zr2    O65       3.29058      .   S
    N61    O65       2.27451      .   S
    Zr9    O66       3.28851      .   S
    N31    O66       2.27352      .   S
    Zr9    O67       3.25958      .   S
    N28    O67       2.25822      .   S
    Zr0    O68       3.26081      .   S
    N19    O68       2.25814      .   S
    Zr0    O69       3.29084      .   S
    N49    O69       2.27470      .   S
    Zr6    O70       3.28848  1_545   S
    N34    O70       2.27192      .   S
    Zr6    O71       3.25724      .   S
    N25    O71       2.25664      .   S
    Zr14   O72       3.28702      .   S
    N58    O72       2.27050      .   S
    Zr14   O73       3.25830      .   S
    N49    O73       2.25734  1_455   S
    Zr1    O74       3.26076      .   S
    N43    O74       2.25807      .   S
    Zr1    O75       3.29072      .   S
    N55    O75       2.27459      .   S
    Zr10   O76       3.26036      .   S
    N37    O76       2.25877      .   S
    Zr10   O77       3.28835      .   S
    N22    O77       2.27329      .   S
    Zr12   O78       3.28988      .   S
    N43    O78       2.27345      .   S
    Zr12   O79       3.25819      .   S
    N61    O79       2.25699      .   S
    Zr11   O80       3.26073      .   S
    N34    O80       2.25818      .   S
    Zr11   O81       3.28977      .   S
    N40    O81       2.27415      .   S
    Zr7    O82       3.28933      .   S
    N37    O82       2.27334      .   S
    Zr7    O83       3.25997      .   S
    N31    O83       2.25827      .   S
    Zr13   O84       3.28961  1_565   S
    N19    O84       2.27357      .   S
    Zr13   O85       3.25824      .   S
    N46    O85       2.25688      .   S
    Zr15   O86       3.29006  1_565   S
    N16    O86       2.27354      .   S
    Zr15   O87       3.25842      .   S
    N55    O87       2.25708  1_455   S
    Zr8    O88       3.29073      .   S
    N25    O88       2.27418      .   S
    Zr8    O89       3.25811      .   S
    N52    O89       2.25729      .   S
    Zr4    O90       3.26020      .   S
    N22    O90       2.25860  1_655   S
    Zr4    O91       3.28937  1_545   S
    N28    O91       2.27361      .   S
    Zr5    O92       3.25914      .   S
    N40    O92       2.25795  1_655   S
    Zr5    O93       3.29034      .   S
    N52    O93       2.27364      .   S
    Zr3    O94       3.26023      .   S
    N58    O94       2.25923      .   S
    Zr3    O95       3.28996      .   S
    N46    O95       2.27406      .   S
