# CIF file generated by openbabel 2.4.90, see http://openbabel.sf.net
data_I
_chemical_name_common ''
_cell_length_a 20.451
_cell_length_b 24.817
_cell_length_c 15.846
_cell_angle_alpha 89.76
_cell_angle_beta 89.797
_cell_angle_gamma 96.677
_space_group_name_H-M_alt 'P 1'
_space_group_name_Hall 'P 1'
loop_
    _symmetry_equiv_pos_as_xyz
    x,y,z
loop_
    _atom_site_label
    _atom_site_type_symbol
    _atom_site_fract_x
    _atom_site_fract_y
    _atom_site_fract_z
    _atom_site_occupancy
    C0      C    0.07942   0.22874   0.89539   1.000
    C1      C    0.07940   0.72864   0.89529   1.000
    C2      C    0.57943   0.22863   0.89538   1.000
    C3      C    0.57924   0.72916   0.89573   1.000
    C4      C    0.17072   0.02036   0.39273   1.000
    C5      C    0.17064   0.52044   0.39309   1.000
    C6      C    0.67047   0.02086   0.39313   1.000
    C7      C    0.67073   0.52035   0.39289   1.000
    C8      C    0.42062   0.27104   0.10356   1.000
    C9      C    0.42095   0.77083   0.10389   1.000
    C10     C    0.92096   0.27084   0.10382   1.000
    C11     C    0.92061   0.77100   0.10462   1.000
    C12     C    0.32951   0.47909   0.60582   1.000
    C13     C    0.32946   0.97920   0.60560   1.000
    C14     C    0.82941   0.47947   0.60701   1.000
    C15     C    0.82947   0.97911   0.60570   1.000
    C16     C    0.30235   0.20987   0.95560   1.000
    C17     C    0.30235   0.70978   0.95586   1.000
    C18     C    0.80240   0.20974   0.95586   1.000
    C19     C    0.80243   0.71051   0.95644   1.000
    C20     C    0.20954   0.09679   0.77511   1.000
    C21     C    0.20963   0.59676   0.77510   1.000
    C22     C    0.70963   0.09677   0.77515   1.000
    C23     C    0.70899   0.59685   0.77717   1.000
    C24     C    0.41881   0.10616   0.81512   1.000
    C25     C    0.41890   0.60623   0.81517   1.000
    C26     C    0.91890   0.10617   0.81513   1.000
    C27     C    0.91831   0.60605   0.81660   1.000
    C28     C    0.44781   0.03991   0.45560   1.000
    C29     C    0.44774   0.53909   0.45484   1.000
    C30     C    0.94773   0.03905   0.45465   1.000
    C31     C    0.94775   0.53941   0.45593   1.000
    C32     C    0.04103   0.15310   0.27352   1.000
    C33     C    0.04095   0.65302   0.27410   1.000
    C34     C    0.54095   0.15359   0.27383   1.000
    C35     C    0.54106   0.65311   0.27368   1.000
    C36     C    0.33139   0.14323   0.31397   1.000
    C37     C    0.33160   0.64327   0.31448   1.000
    C38     C    0.83160   0.14332   0.31445   1.000
    C39     C    0.83150   0.64315   0.31487   1.000
    C40     C    0.19787   0.29022   0.04230   1.000
    C41     C    0.19773   0.78926   0.04348   1.000
    C42     C    0.69770   0.28932   0.04346   1.000
    C43     C    0.69784   0.79005   0.04359   1.000
    C44     C    0.29110   0.40350   0.22225   1.000
    C45     C    0.29109   0.90304   0.22260   1.000
    C46     C    0.79108   0.40303   0.22270   1.000
    C47     C    0.79065   0.90331   0.22389   1.000
    C48     C    0.08171   0.39392   0.18322   1.000
    C49     C    0.08173   0.89365   0.18328   1.000
    C50     C    0.58175   0.39378   0.18321   1.000
    C51     C    0.58146   0.89411   0.18349   1.000
    C52     C    0.05217   0.46038   0.54405   1.000
    C53     C    0.05203   0.95996   0.54350   1.000
    C54     C    0.55211   0.46001   0.54370   1.000
    C55     C    0.55205   0.96017   0.54348   1.000
    C56     C    0.45918   0.34660   0.72601   1.000
    C57     C    0.45903   0.84657   0.72543   1.000
    C58     C    0.95902   0.34681   0.72590   1.000
    C59     C    0.95916   0.84659   0.72591   1.000
    C60     C    0.16849   0.35679   0.68529   1.000
    C61     C    0.16863   0.85677   0.68512   1.000
    C62     C    0.66868   0.35683   0.68541   1.000
    C63     C    0.66848   0.85653   0.68445   1.000
    C64     C    0.42812   0.18589   0.93280   1.000
    C65     C    0.42817   0.68594   0.93281   1.000
    C66     C    0.92820   0.18589   0.93281   1.000
    C67     C    0.92809   0.68619   0.93339   1.000
    C68     C    0.18598   0.17672   0.88443   1.000
    C69     C    0.18601   0.67668   0.88447   1.000
    C70     C    0.68604   0.17668   0.88447   1.000
    C71     C    0.68588   0.67732   0.88590   1.000
    C72     C    0.31894   0.05341   0.72556   1.000
    C73     C    0.31901   0.55336   0.72575   1.000
    C74     C    0.81900   0.05335   0.72568   1.000
    C75     C    0.81854   0.55322   0.72768   1.000
    C76     C    0.36735   0.16019   0.89104   1.000
    C77     C    0.36739   0.66021   0.89113   1.000
    C78     C    0.86742   0.16017   0.89110   1.000
    C79     C    0.86714   0.66045   0.89215   1.000
    C80     C    0.30629   0.17783   0.90975   1.000
    C81     C    0.30632   0.67780   0.90988   1.000
    C82     C    0.80635   0.17777   0.90987   1.000
    C83     C    0.80620   0.67828   0.91084   1.000
    C84     C    0.24967   0.15526   0.86749   1.000
    C85     C    0.24972   0.65523   0.86757   1.000
    C86     C    0.74974   0.15522   0.86750   1.000
    C87     C    0.74944   0.65561   0.86000   1.000
    C88     C    0.25362   0.11434   0.80789   1.000
    C89     C    0.25369   0.61432   0.80790   1.000
    C90     C    0.75370   0.11431   0.80794   1.000
    C91     C    0.75316   0.61443   0.80972   1.000
    C92     C    0.31457   0.09644   0.78966   1.000
    C93     C    0.31465   0.59644   0.78975   1.000
    C94     C    0.81465   0.09642   0.78972   1.000
    C95     C    0.81403   0.59639   0.79150   1.000
    C96     C    0.37144   0.11965   0.83059   1.000
    C97     C    0.37152   0.61968   0.83065   1.000
    C98     C    0.87153   0.11964   0.83062   1.000
    C99     C    0.87102   0.61967   0.83208   1.000
    C100    C    0.32199   0.06324   0.43260   1.000
    C101    C    0.32205   0.56307   0.43270   1.000
    C102    C    0.82205   0.06310   0.43265   1.000
    C103    C    0.82202   0.56321   0.43352   1.000
    C104    C    0.06425   0.07244   0.38275   1.000
    C105    C    0.06425   0.57266   0.38386   1.000
    C106    C    0.56436   0.07344   0.38402   1.000
    C107    C    0.56427   0.57246   0.38292   1.000
    C108    C    0.43137   0.19670   0.22422   1.000
    C109    C    0.43153   0.69653   0.22440   1.000
    C110    C    0.93150   0.19656   0.22440   1.000
    C111    C    0.93140   0.69637   0.22467   1.000
    C112    C    0.38279   0.08929   0.39040   1.000
    C113    C    0.38288   0.58898   0.39041   1.000
    C114    C    0.88287   0.08898   0.39030   1.000
    C115    C    0.88284   0.58907   0.39114   1.000
    C116    C    0.44391   0.07195   0.40935   1.000
    C117    C    0.44391   0.57132   0.40887   1.000
    C118    C    0.94390   0.07128   0.40869   1.000
    C119    C    0.94389   0.57151   0.40976   1.000
    C120    C    0.50066   0.09480   0.36685   1.000
    C121    C    0.50066   0.59411   0.36630   1.000
    C122    C    0.00000   0.09409   0.36613   1.000
    C123    C    0.00000   0.59423   0.36707   1.000
    C124    C    0.49678   0.13580   0.30684   1.000
    C125    C    0.49688   0.63535   0.30660   1.000
    C126    C    0.99686   0.13534   0.30651   1.000
    C127    C    0.99679   0.63531   0.30717   1.000
    C128    C    0.43577   0.15347   0.28850   1.000
    C129    C    0.43594   0.65325   0.28864   1.000
    C130    C    0.93592   0.15325   0.28855   1.000
    C131    C    0.93583   0.65316   0.28902   1.000
    C132    C    0.37877   0.12991   0.32961   1.000
    C133    C    0.37893   0.62976   0.32984   1.000
    C134    C    0.87892   0.12977   0.32975   1.000
    C135    C    0.87885   0.62970   0.33031   1.000
    C136    C    0.07203   0.31387   0.06631   1.000
    C137    C    0.07204   0.81340   0.06650   1.000
    C138    C    0.57199   0.31357   0.06650   1.000
    C139    C    0.57196   0.81404   0.06674   1.000
    C140    C    0.31440   0.32351   0.11264   1.000
    C141    C    0.31425   0.82258   0.11393   1.000
    C142    C    0.81424   0.32259   0.11394   1.000
    C143    C    0.81417   0.82316   0.11506   1.000
    C144    C    0.18148   0.44681   0.27219   1.000
    C145    C    0.18151   0.94663   0.27212   1.000
    C146    C    0.68151   0.44665   0.27216   1.000
    C147    C    0.68120   0.94700   0.27265   1.000
    C148    C    0.13299   0.33984   0.10723   1.000
    C149    C    0.13295   0.83925   0.10778   1.000
    C150    C    0.63294   0.33936   0.10772   1.000
    C151    C    0.63286   0.83984   0.10800   1.000
    C152    C    0.19402   0.32229   0.08814   1.000
    C153    C    0.19392   0.82149   0.08905   1.000
    C154    C    0.69390   0.32155   0.08900   1.000
    C155    C    0.69390   0.82214   0.08938   1.000
    C156    C    0.25077   0.34500   0.12996   1.000
    C157    C    0.25066   0.84422   0.13088   1.000
    C158    C    0.75065   0.34425   0.13090   1.000
    C159    C    0.75051   0.84474   0.13165   1.000
    C160    C    0.24695   0.38594   0.18963   1.000
    C161    C    0.24691   0.88542   0.19010   1.000
    C162    C    0.74691   0.38544   0.19015   1.000
    C163    C    0.74659   0.88579   0.19100   1.000
    C164    C    0.18603   0.40381   0.20810   1.000
    C165    C    0.18602   0.90342   0.20835   1.000
    C166    C    0.68602   0.40347   0.20836   1.000
    C167    C    0.68568   0.90382   0.20895   1.000
    C168    C    0.12905   0.38048   0.16753   1.000
    C169    C    0.12904   0.88006   0.16700   1.000
    C170    C    0.62905   0.38017   0.16770   1.000
    C171    C    0.62881   0.88056   0.16813   1.000
    C172    C    0.17793   0.43671   0.56664   1.000
    C173    C    0.17792   0.93662   0.56632   1.000
    C174    C    0.67800   0.43672   0.56660   1.000
    C175    C    0.67788   0.93661   0.56607   1.000
    C176    C    0.43569   0.42664   0.61576   1.000
    C177    C    0.43563   0.92676   0.61550   1.000
    C178    C    0.93569   0.42710   0.61609   1.000
    C179    C    0.93565   0.92664   0.61569   1.000
    C180    C    0.06861   0.30351   0.77546   1.000
    C181    C    0.06875   0.80345   0.77540   1.000
    C182    C    0.56876   0.30344   0.77551   1.000
    C183    C    0.56863   0.80338   0.77497   1.000
    C184    C    0.11712   0.41081   0.60897   1.000
    C185    C    0.11713   0.91063   0.60864   1.000
    C186    C    0.61721   0.41071   0.60892   1.000
    C187    C    0.61706   0.91058   0.60825   1.000
    C188    C    0.05605   0.42832   0.59028   1.000
    C189    C    0.05600   0.92799   0.58987   1.000
    C190    C    0.55608   0.42804   0.59008   1.000
    C191    C    0.55597   0.92806   0.58961   1.000
    C192    C    0.99933   0.40556   0.63295   1.000
    C193    C    0.99934   0.90523   0.63260   1.000
    C194    C    0.49939   0.40527   0.63281   1.000
    C195    C    0.49929   0.90527   0.63234   1.000
    C196    C    0.00318   0.36452   0.69292   1.000
    C197    C    0.00328   0.86430   0.69276   1.000
    C198    C    0.50332   0.36433   0.69290   1.000
    C199    C    0.50318   0.86426   0.69230   1.000
    C200    C    0.06416   0.34672   0.71111   1.000
    C201    C    0.06430   0.84660   0.71090   1.000
    C202    C    0.56433   0.34664   0.71115   1.000
    C203    C    0.56416   0.84646   0.71041   1.000
    C204    C    0.12113   0.37020   0.66983   1.000
    C205    C    0.12123   0.87010   0.66961   1.000
    C206    C    0.62129   0.37016   0.66986   1.000
    C207    C    0.62110   0.86993   0.66904   1.000
    C208    C    0.48389   0.17396   0.90743   1.000
    C209    C    0.48392   0.67404   0.90741   1.000
    C210    C    0.98396   0.17397   0.90740   1.000
    C211    C    0.98374   0.67419   0.90767   1.000
    C212    C    0.42257   0.21979   0.99227   1.000
    C213    C    0.42265   0.71988   0.99227   1.000
    C214    C    0.92267   0.21982   0.99220   1.000
    C215    C    0.92275   0.72014   0.99282   1.000
    C216    C    0.18313   0.21322   0.94103   1.000
    C217    C    0.18314   0.71320   0.94102   1.000
    C218    C    0.68317   0.21319   0.94103   1.000
    C219    C    0.68351   0.71493   0.94080   1.000
    C220    C    0.13446   0.16017   0.84107   1.000
    C221    C    0.13451   0.66010   0.84100   1.000
    C222    C    0.63454   0.16012   0.84107   1.000
    C223    C    0.63389   0.65983   0.84409   1.000
    C224    C    0.26652   0.03015   0.69098   1.000
    C225    C    0.26655   0.52997   0.69146   1.000
    C226    C    0.76655   0.03001   0.69133   1.000
    C227    C    0.76631   0.53014   0.69244   1.000
    C228    C    0.37546   0.03963   0.70426   1.000
    C229    C    0.37554   0.53965   0.70427   1.000
    C230    C    0.87552   0.03963   0.70423   1.000
    C231    C    0.87513   0.53926   0.70717   1.000
    C232    C    0.26614   0.07440   0.40675   1.000
    C233    C    0.26621   0.57432   0.40689   1.000
    C234    C    0.76621   0.07441   0.40692   1.000
    C235    C    0.76622   0.57420   0.40718   1.000
    C236    C    0.32766   0.02984   0.49304   1.000
    C237    C    0.32767   0.52971   0.49320   1.000
    C238    C    0.82768   0.02975   0.49316   1.000
    C239    C    0.82760   0.53023   0.49458   1.000
    C240    C    0.06644   0.03466   0.43784   1.000
    C241    C    0.06671   0.53538   0.43974   1.000
    C242    C    0.56692   0.03665   0.44064   1.000
    C243    C    0.56646   0.53471   0.43806   1.000
    C244    C    0.11637   0.09008   0.34059   1.000
    C245    C    0.11612   0.58989   0.34087   1.000
    C246    C    0.61613   0.09024   0.34056   1.000
    C247    C    0.61637   0.59005   0.34068   1.000
    C248    C    0.48369   0.21992   0.18867   1.000
    C249    C    0.48386   0.71978   0.18880   1.000
    C250    C    0.98384   0.21981   0.18883   1.000
    C251    C    0.98370   0.71964   0.18909   1.000
    C252    C    0.37481   0.21065   0.20371   1.000
    C253    C    0.37499   0.71055   0.20408   1.000
    C254    C    0.87497   0.21057   0.20400   1.000
    C255    C    0.87484   0.71033   0.20422   1.000
    C256    C    0.01639   0.32580   0.09214   1.000
    C257    C    0.01633   0.82516   0.09240   1.000
    C258    C    0.51633   0.32553   0.09220   1.000
    C259    C    0.51629   0.82598   0.09239   1.000
    C260    C    0.07731   0.27976   0.00706   1.000
    C261    C    0.07746   0.77956   0.00701   1.000
    C262    C    0.57733   0.27959   0.00710   1.000
    C263    C    0.57730   0.77999   0.00741   1.000
    C264    C    0.31710   0.28686   0.05630   1.000
    C265    C    0.31660   0.78496   0.05908   1.000
    C266    C    0.81658   0.28498   0.05907   1.000
    C267    C    0.81700   0.78652   0.05870   1.000
    C268    C    0.36606   0.34017   0.15575   1.000
    C269    C    0.36625   0.84011   0.15573   1.000
    C270    C    0.86624   0.34011   0.15573   1.000
    C271    C    0.86563   0.83973   0.15852   1.000
    C272    C    0.23370   0.46983   0.30755   1.000
    C273    C    0.23375   0.96970   0.30741   1.000
    C274    C    0.73374   0.46971   0.30748   1.000
    C275    C    0.73349   0.97005   0.30777   1.000
    C276    C    0.12488   0.46072   0.29281   1.000
    C277    C    0.12495   0.96065   0.29258   1.000
    C278    C    0.62494   0.46065   0.29265   1.000
    C279    C    0.62463   0.96099   0.29317   1.000
    C280    C    0.23373   0.42557   0.59276   1.000
    C281    C    0.23372   0.92562   0.59263   1.000
    C282    C    0.73384   0.42576   0.59285   1.000
    C283    C    0.73366   0.92567   0.59256   1.000
    C284    C    0.17237   0.46987   0.50582   1.000
    C285    C    0.17235   0.96968   0.50535   1.000
    C286    C    0.67236   0.46982   0.50570   1.000
    C287    C    0.67234   0.96967   0.50509   1.000
    C288    C    0.43312   0.46336   0.55904   1.000
    C289    C    0.43307   0.96355   0.55893   1.000
    C290    C    0.93320   0.46425   0.56000   1.000
    C291    C    0.93309   0.96338   0.55900   1.000
    C292    C    0.38393   0.40990   0.65927   1.000
    C293    C    0.38390   0.90999   0.65910   1.000
    C294    C    0.88385   0.40999   0.65920   1.000
    C295    C    0.88390   0.90990   0.65920   1.000
    C296    C    0.01631   0.28020   0.81102   1.000
    C297    C    0.01643   0.78018   0.81098   1.000
    C298    C    0.51644   0.28016   0.81105   1.000
    C299    C    0.51633   0.78031   0.81088   1.000
    C300    C    0.12518   0.28956   0.79590   1.000
    C301    C    0.12530   0.78952   0.79591   1.000
    C302    C    0.62531   0.28950   0.79600   1.000
    C303    C    0.62516   0.78940   0.79530   1.000
    O304    O    0.07475   0.79648   0.03676   1.000
    O305    O    0.07843   0.75410   0.95115   1.000
    O306    O    0.07467   0.29682   0.03669   1.000
    O307    O    0.07837   0.25425   0.95123   1.000
    O308    O    0.57466   0.29658   0.03680   1.000
    O309    O    0.57838   0.25411   0.95124   1.000
    O310    O    0.57463   0.79701   0.03708   1.000
    O311    O    0.57827   0.75457   0.95157   1.000
    O312    O    0.19594   0.30625   0.06522   1.000
    O313    O    0.69580   0.30544   0.06623   1.000
    O314    O    0.19583   0.80537   0.06627   1.000
    O315    O    0.69587   0.80610   0.06649   1.000
    O316    O    0.36886   0.27895   0.07993   1.000
    O317    O    0.31575   0.30519   0.08447   1.000
    O318    O    0.86881   0.77876   0.08166   1.000
    O319    O    0.81558   0.80484   0.08688   1.000
    O320    O    0.86877   0.27791   0.08145   1.000
    O321    O    0.81541   0.30378   0.08651   1.000
    O322    O    0.36878   0.77789   0.08149   1.000
    O323    O    0.31543   0.80377   0.08651   1.000
    O324    O    0.04421   0.31984   0.07923   1.000
    O325    O    0.10251   0.32686   0.08677   1.000
    O326    O    0.04419   0.81928   0.07945   1.000
    O327    O    0.10249   0.82632   0.08714   1.000
    O328    O    0.54416   0.31955   0.07935   1.000
    O329    O    0.60247   0.32647   0.08711   1.000
    O330    O    0.54413   0.82001   0.07957   1.000
    O331    O    0.60241   0.82694   0.08737   1.000
    O332    O    0.16351   0.33106   0.09769   1.000
    O333    O    0.22239   0.33365   0.10905   1.000
    O334    O    0.66342   0.33046   0.09836   1.000
    O335    O    0.72227   0.33290   0.10995   1.000
    O336    O    0.16343   0.83037   0.09842   1.000
    O337    O    0.22229   0.83286   0.10997   1.000
    O338    O    0.66338   0.83099   0.09869   1.000
    O339    O    0.72220   0.83344   0.11052   1.000
    O340    O    0.96867   0.29832   0.09798   1.000
    O341    O    0.46848   0.29829   0.09788   1.000
    O342    O    0.46862   0.79840   0.09814   1.000
    O343    O    0.96847   0.79808   0.09851   1.000
    O344    O    0.39334   0.30560   0.12966   1.000
    O345    O    0.45216   0.24548   0.14612   1.000
    O346    O    0.39772   0.24084   0.15364   1.000
    O347    O    0.42160   0.24541   0.04792   1.000
    O348    O    0.89360   0.30548   0.12978   1.000
    O349    O    0.95240   0.24532   0.14633   1.000
    O350    O    0.89797   0.24071   0.15391   1.000
    O351    O    0.92181   0.24533   0.04801   1.000
    O352    O    0.39360   0.80547   0.12981   1.000
    O353    O    0.45241   0.74530   0.14635   1.000
    O354    O    0.39797   0.74069   0.15399   1.000
    O355    O    0.42180   0.74535   0.04808   1.000
    O356    O    0.89312   0.80537   0.13157   1.000
    O357    O    0.95216   0.74532   0.14686   1.000
    O358    O    0.89773   0.74067   0.15442   1.000
    O359    O    0.92168   0.74557   0.04872   1.000
    O360    O    0.13102   0.36016   0.13738   1.000
    O361    O    0.63100   0.35977   0.13771   1.000
    O362    O    0.13099   0.85966   0.13739   1.000
    O363    O    0.63084   0.86020   0.13806   1.000
    O364    O    0.28258   0.33426   0.12130   1.000
    O365    O    0.34023   0.33184   0.13420   1.000
    O366    O    0.28246   0.83340   0.12241   1.000
    O367    O    0.34025   0.83135   0.13483   1.000
    O368    O    0.78244   0.33342   0.12242   1.000
    O369    O    0.84024   0.33135   0.13484   1.000
    O370    O    0.78234   0.83395   0.12336   1.000
    O371    O    0.83990   0.83144   0.13679   1.000
    O372    O    0.24886   0.36547   0.15980   1.000
    O373    O    0.24879   0.86482   0.16049   1.000
    O374    O    0.74878   0.36484   0.16053   1.000
    O375    O    0.74855   0.86526   0.16132   1.000
    O376    O    0.10539   0.88686   0.17514   1.000
    O377    O    0.15753   0.89174   0.18768   1.000
    O378    O    0.10538   0.38720   0.17538   1.000
    O379    O    0.15754   0.39214   0.18782   1.000
    O380    O    0.60540   0.38697   0.17546   1.000
    O381    O    0.65754   0.39182   0.18803   1.000
    O382    O    0.60514   0.88734   0.17581   1.000
    O383    O    0.65725   0.89219   0.18854   1.000
    O384    O    0.45753   0.20831   0.20645   1.000
    O385    O    0.45769   0.70816   0.20660   1.000
    O386    O    0.95767   0.20818   0.20662   1.000
    O387    O    0.95755   0.70800   0.20688   1.000
    O388    O    0.21649   0.39487   0.19887   1.000
    O389    O    0.26903   0.39472   0.20594   1.000
    O390    O    0.21647   0.89442   0.19923   1.000
    O391    O    0.26900   0.89423   0.20635   1.000
    O392    O    0.71647   0.39445   0.19926   1.000
    O393    O    0.76899   0.39423   0.20643   1.000
    O394    O    0.71614   0.89480   0.19998   1.000
    O395    O    0.76862   0.89455   0.20745   1.000
    O396    O    0.40309   0.20367   0.21397   1.000
    O397    O    0.90324   0.20356   0.21420   1.000
    O398    O    0.40326   0.70354   0.21424   1.000
    O399    O    0.90312   0.70335   0.21445   1.000
    O400    O    0.18375   0.42531   0.24015   1.000
    O401    O    0.18377   0.92502   0.24024   1.000
    O402    O    0.68377   0.42506   0.24026   1.000
    O403    O    0.68344   0.92541   0.24080   1.000
    O404    O    0.43357   0.17509   0.25636   1.000
    O405    O    0.43373   0.67489   0.25652   1.000
    O406    O    0.93371   0.17490   0.25648   1.000
    O407    O    0.93361   0.67476   0.25685   1.000
    O408    O    0.15323   0.95364   0.28235   1.000
    O409    O    0.20763   0.95816   0.28976   1.000
    O410    O    0.65323   0.45365   0.28241   1.000
    O411    O    0.70763   0.45818   0.28982   1.000
    O412    O    0.15318   0.45377   0.28250   1.000
    O413    O    0.20759   0.45832   0.28987   1.000
    O414    O    0.65292   0.95400   0.28291   1.000
    O415    O    0.70735   0.95853   0.29021   1.000
    O416    O    0.01894   0.14422   0.29002   1.000
    O417    O    0.51897   0.64423   0.29014   1.000
    O418    O    0.51886   0.14469   0.29034   1.000
    O419    O    0.01887   0.64417   0.29064   1.000
    O420    O    0.46628   0.14464   0.29767   1.000
    O421    O    0.40727   0.14169   0.30906   1.000
    O422    O    0.96639   0.14429   0.29753   1.000
    O423    O    0.90742   0.14151   0.30915   1.000
    O424    O    0.46641   0.64430   0.29762   1.000
    O425    O    0.40743   0.64150   0.30924   1.000
    O426    O    0.96631   0.64423   0.29810   1.000
    O427    O    0.90734   0.64143   0.30966   1.000
    O428    O    0.14784   0.99050   0.34266   1.000
    O429    O    0.64784   0.49050   0.34277   1.000
    O430    O    0.14776   0.49058   0.34295   1.000
    O431    O    0.64755   0.99093   0.34315   1.000
    O432    O    0.99843   0.11471   0.33632   1.000
    O433    O    0.49877   0.61473   0.33645   1.000
    O434    O    0.49872   0.11530   0.33685   1.000
    O435    O    0.99839   0.61477   0.33712   1.000
    O436    O    0.20224   0.99503   0.35007   1.000
    O437    O    0.70224   0.49503   0.35019   1.000
    O438    O    0.20217   0.49514   0.35032   1.000
    O439    O    0.70198   0.99546   0.35045   1.000
    O440    O    0.35508   0.13657   0.32179   1.000
    O441    O    0.85526   0.13655   0.32210   1.000
    O442    O    0.35527   0.63652   0.32216   1.000
    O443    O    0.85517   0.63642   0.32259   1.000
    O444    O    0.38078   0.10960   0.36001   1.000
    O445    O    0.88089   0.10938   0.36002   1.000
    O446    O    0.38091   0.60937   0.36013   1.000
    O447    O    0.88085   0.60939   0.36073   1.000
    O448    O    0.59024   0.08184   0.36229   1.000
    O449    O    0.64330   0.05555   0.36685   1.000
    O450    O    0.09031   0.08126   0.36167   1.000
    O451    O    0.14355   0.05522   0.36666   1.000
    O452    O    0.59032   0.58125   0.36180   1.000
    O453    O    0.64355   0.55520   0.36679   1.000
    O454    O    0.09018   0.58128   0.36237   1.000
    O455    O    0.14338   0.55517   0.36698   1.000
    O456    O    0.03213   0.08327   0.37444   1.000
    O457    O    0.97195   0.08269   0.38741   1.000
    O458    O    0.53247   0.58329   0.37461   1.000
    O459    O    0.47229   0.58271   0.38759   1.000
    O460    O    0.53251   0.08412   0.37544   1.000
    O461    O    0.47229   0.08338   0.38810   1.000
    O462    O    0.03212   0.58345   0.37547   1.000
    O463    O    0.97195   0.58287   0.38842   1.000
    O464    O    0.06535   0.05355   0.41030   1.000
    O465    O    0.56537   0.55358   0.41049   1.000
    O466    O    0.06548   0.55402   0.41180   1.000
    O467    O    0.56564   0.05505   0.41233   1.000
    O468    O    0.91338   0.08013   0.39949   1.000
    O469    O    0.85246   0.07604   0.41148   1.000
    O470    O    0.41335   0.08062   0.39988   1.000
    O471    O    0.35239   0.07627   0.41150   1.000
    O472    O    0.41339   0.58015   0.39964   1.000
    O473    O    0.35246   0.57602   0.41156   1.000
    O474    O    0.91337   0.58029   0.40045   1.000
    O475    O    0.85243   0.57614   0.41233   1.000
    O476    O    0.21843   0.04738   0.39974   1.000
    O477    O    0.11858   0.02751   0.41529   1.000
    O478    O    0.17154   0.99502   0.44904   1.000
    O479    O    0.71847   0.54727   0.40004   1.000
    O480    O    0.61860   0.52753   0.41548   1.000
    O481    O    0.67154   0.49508   0.44930   1.000
    O482    O    0.21842   0.54738   0.39999   1.000
    O483    O    0.11867   0.52791   0.41642   1.000
    O484    O    0.17151   0.49516   0.44945   1.000
    O485    O    0.71834   0.04763   0.40003   1.000
    O486    O    0.61870   0.02876   0.41689   1.000
    O487    O    0.67140   0.99526   0.44911   1.000
    O488    O    0.29406   0.06882   0.41968   1.000
    O489    O    0.29413   0.56869   0.41980   1.000
    O490    O    0.79413   0.06875   0.41979   1.000
    O491    O    0.79412   0.56871   0.42035   1.000
    O492    O    0.94581   0.05517   0.43167   1.000
    O493    O    0.44582   0.55520   0.43186   1.000
    O494    O    0.44586   0.05593   0.43248   1.000
    O495    O    0.94582   0.55546   0.43285   1.000
    O496    O    0.32483   0.04654   0.46282   1.000
    O497    O    0.82487   0.04642   0.46291   1.000
    O498    O    0.32486   0.54639   0.46295   1.000
    O499    O    0.82481   0.54672   0.46405   1.000
    O500    O    0.32856   0.00452   0.54932   1.000
    O501    O    0.82858   0.00443   0.54943   1.000
    O502    O    0.32859   0.50440   0.54951   1.000
    O503    O    0.82851   0.50485   0.55080   1.000
    O504    O    0.67511   0.95314   0.53558   1.000
    O505    O    0.17513   0.95315   0.53584   1.000
    O506    O    0.67518   0.45327   0.53615   1.000
    O507    O    0.17515   0.45329   0.53623   1.000
    O508    O    0.55401   0.94412   0.56655   1.000
    O509    O    0.05401   0.94397   0.56669   1.000
    O510    O    0.55410   0.44402   0.56689   1.000
    O511    O    0.05411   0.44435   0.56717   1.000
    O512    O    0.38127   0.97137   0.58227   1.000
    O513    O    0.43435   0.94515   0.58722   1.000
    O514    O    0.88128   0.97125   0.58235   1.000
    O515    O    0.93437   0.94501   0.58735   1.000
    O516    O    0.38132   0.47123   0.58243   1.000
    O517    O    0.43441   0.44500   0.58740   1.000
    O518    O    0.88131   0.47186   0.58351   1.000
    O519    O    0.93444   0.44567   0.58805   1.000
    O520    O    0.70577   0.93114   0.57931   1.000
    O521    O    0.64747   0.92360   0.58716   1.000
    O522    O    0.20582   0.93112   0.57948   1.000
    O523    O    0.14753   0.92363   0.58748   1.000
    O524    O    0.70592   0.43124   0.57973   1.000
    O525    O    0.64761   0.42372   0.58776   1.000
    O526    O    0.20583   0.43114   0.57970   1.000
    O527    O    0.14752   0.42376   0.58781   1.000
    O528    O    0.58651   0.91932   0.59893   1.000
    O529    O    0.52763   0.91667   0.61098   1.000
    O530    O    0.08657   0.91931   0.59926   1.000
    O531    O    0.02767   0.91661   0.61123   1.000
    O532    O    0.58665   0.41938   0.59950   1.000
    O533    O    0.52774   0.41666   0.61145   1.000
    O534    O    0.08658   0.41956   0.59962   1.000
    O535    O    0.02769   0.41694   0.61162   1.000
    O536    O    0.78156   0.95239   0.59913   1.000
    O537    O    0.28159   0.95241   0.59912   1.000
    O538    O    0.28162   0.45233   0.59929   1.000
    O539    O    0.78163   0.45261   0.59993   1.000
    O540    O    0.35668   0.94460   0.63235   1.000
    O541    O    0.29799   0.00468   0.64829   1.000
    O542    O    0.35246   0.00941   0.65493   1.000
    O543    O    0.85669   0.94451   0.63245   1.000
    O544    O    0.79801   0.00456   0.64852   1.000
    O545    O    0.85250   0.00937   0.65497   1.000
    O546    O    0.35672   0.44449   0.63255   1.000
    O547    O    0.29803   0.50453   0.64864   1.000
    O548    O    0.35252   0.50937   0.65505   1.000
    O549    O    0.85663   0.44473   0.63311   1.000
    O550    O    0.79786   0.50480   0.64973   1.000
    O551    O    0.85227   0.50936   0.65709   1.000
    O552    O    0.61908   0.89025   0.63865   1.000
    O553    O    0.11918   0.89036   0.63913   1.000
    O554    O    0.61925   0.39043   0.63939   1.000
    O555    O    0.11912   0.39050   0.63940   1.000
    O556    O    0.46746   0.91602   0.62392   1.000
    O557    O    0.40977   0.91838   0.63730   1.000
    O558    O    0.96749   0.91594   0.62415   1.000
    O559    O    0.90977   0.91827   0.63745   1.000
    O560    O    0.46754   0.41595   0.62429   1.000
    O561    O    0.40981   0.41827   0.63752   1.000
    O562    O    0.96751   0.41633   0.62452   1.000
    O563    O    0.90977   0.41854   0.63765   1.000
    O564    O    0.50124   0.88476   0.66232   1.000
    O565    O    0.00131   0.88477   0.66268   1.000
    O566    O    0.50136   0.38480   0.66286   1.000
    O567    O    0.00126   0.38504   0.66294   1.000
    O568    O    0.64479   0.86323   0.67675   1.000
    O569    O    0.59263   0.85819   0.68973   1.000
    O570    O    0.14493   0.86343   0.67737   1.000
    O571    O    0.09277   0.85835   0.69026   1.000
    O572    O    0.14481   0.36350   0.67756   1.000
    O573    O    0.09264   0.35846   0.69047   1.000
    O574    O    0.64499   0.36349   0.67764   1.000
    O575    O    0.59281   0.35840   0.69051   1.000
    O576    O    0.29273   0.04178   0.70827   1.000
    O577    O    0.79277   0.04168   0.70851   1.000
    O578    O    0.29278   0.54167   0.70861   1.000
    O579    O    0.53367   0.85536   0.70135   1.000
    O580    O    0.48111   0.85541   0.70887   1.000
    O581    O    0.79242   0.54168   0.71006   1.000
    O582    O    0.03379   0.85545   0.70183   1.000
    O583    O    0.98122   0.85544   0.70934   1.000
    O584    O    0.53383   0.35548   0.70203   1.000
    O585    O    0.48125   0.35547   0.70946   1.000
    O586    O    0.03367   0.35562   0.70202   1.000
    O587    O    0.98110   0.35567   0.70941   1.000
    O588    O    0.84726   0.04649   0.71496   1.000
    O589    O    0.34720   0.04652   0.71491   1.000
    O590    O    0.34727   0.54651   0.71501   1.000
    O591    O    0.84683   0.54624   0.71743   1.000
    O592    O    0.56639   0.82492   0.74269   1.000
    O593    O    0.06653   0.82502   0.74315   1.000
    O594    O    0.06638   0.32511   0.74329   1.000
    O595    O    0.56655   0.32504   0.74333   1.000
    O596    O    0.31675   0.07492   0.75761   1.000
    O597    O    0.81683   0.07489   0.75770   1.000
    O598    O    0.31683   0.57490   0.75775   1.000
    O599    O    0.81629   0.57481   0.75959   1.000
    O600    O    0.59689   0.79639   0.78514   1.000
    O601    O    0.54248   0.79185   0.79293   1.000
    O602    O    0.23166   0.60554   0.79150   1.000
    O603    O    0.23158   0.10556   0.79150   1.000
    O604    O    0.73166   0.10554   0.79155   1.000
    O605    O    0.09702   0.79648   0.78565   1.000
    O606    O    0.04259   0.79182   0.79319   1.000
    O607    O    0.09689   0.29653   0.78568   1.000
    O608    O    0.04246   0.29185   0.79324   1.000
    O609    O    0.59703   0.29647   0.78576   1.000
    O610    O    0.54260   0.29180   0.79328   1.000
    O611    O    0.73108   0.60564   0.79345   1.000
    O612    O    0.28409   0.10539   0.79878   1.000
    O613    O    0.34301   0.10804   0.81013   1.000
    O614    O    0.78418   0.10537   0.79883   1.000
    O615    O    0.84309   0.10803   0.81017   1.000
    O616    O    0.28417   0.60538   0.79883   1.000
    O617    O    0.34309   0.60806   0.81020   1.000
    O618    O    0.78360   0.60541   0.80061   1.000
    O619    O    0.84252   0.60803   0.81179   1.000
    O620    O    0.60220   0.75928   0.84552   1.000
    O621    O    0.10230   0.25915   0.84565   1.000
    O622    O    0.10235   0.75908   0.84560   1.000
    O623    O    0.60237   0.25907   0.84569   1.000
    O624    O    0.25165   0.13480   0.83769   1.000
    O625    O    0.25171   0.63478   0.83774   1.000
    O626    O    0.75172   0.13477   0.83772   1.000
    O627    O    0.75130   0.63502   0.83486   1.000
    O628    O    0.54778   0.75474   0.85331   1.000
    O629    O    0.04791   0.75441   0.85314   1.000
    O630    O    0.04787   0.25447   0.85321   1.000
    O631    O    0.54793   0.25440   0.85322   1.000
    O632    O    0.39513   0.11290   0.82286   1.000
    O633    O    0.89521   0.11291   0.82288   1.000
    O634    O    0.39521   0.61295   0.82291   1.000
    O635    O    0.89466   0.61286   0.82434   1.000
    O636    O    0.36939   0.13992   0.86082   1.000
    O637    O    0.86947   0.13991   0.86086   1.000
    O638    O    0.36945   0.63995   0.86089   1.000
    O639    O    0.86908   0.64006   0.86212   1.000
    O640    O    0.16026   0.66839   0.86274   1.000
    O641    O    0.10695   0.69437   0.86815   1.000
    O642    O    0.66029   0.16840   0.86277   1.000
    O643    O    0.60699   0.19437   0.86823   1.000
    O644    O    0.16022   0.16845   0.86275   1.000
    O645    O    0.10694   0.19445   0.86823   1.000
    O646    O    0.65988   0.66858   0.86500   1.000
    O647    O    0.60656   0.69449   0.86991   1.000
    O648    O    0.71766   0.66647   0.87295   1.000
    O649    O    0.77782   0.66695   0.88542   1.000
    O650    O    0.21782   0.16599   0.87596   1.000
    O651    O    0.27798   0.16654   0.88862   1.000
    O652    O    0.71789   0.16595   0.87599   1.000
    O653    O    0.77805   0.16650   0.88869   1.000
    O654    O    0.21786   0.66596   0.87602   1.000
    O655    O    0.27802   0.66652   0.88873   1.000
    O656    O    0.18456   0.19497   0.91273   1.000
    O657    O    0.68460   0.19494   0.91275   1.000
    O658    O    0.18457   0.69494   0.91275   1.000
    O659    O    0.68470   0.69613   0.91335   1.000
    O660    O    0.33682   0.16901   0.90040   1.000
    O661    O    0.39773   0.17304   0.91192   1.000
    O662    O    0.83688   0.16897   0.90048   1.000
    O663    O    0.89781   0.17303   0.91196   1.000
    O664    O    0.33685   0.66901   0.90051   1.000
    O665    O    0.39778   0.67308   0.91197   1.000
    O666    O    0.83667   0.66937   0.90150   1.000
    O667    O    0.89762   0.67332   0.91277   1.000
    O668    O    0.03157   0.70141   0.90148   1.000
    O669    O    0.13127   0.72092   0.91816   1.000
    O670    O    0.53166   0.20130   0.90141   1.000
    O671    O    0.63130   0.22091   0.91821   1.000
    O672    O    0.03169   0.20135   0.90140   1.000
    O673    O    0.13128   0.22098   0.91821   1.000
    O674    O    0.53158   0.70160   0.90157   1.000
    O675    O    0.63138   0.72204   0.91827   1.000
    O676    O    0.95608   0.17993   0.92011   1.000
    O677    O    0.45605   0.67999   0.92011   1.000
    O678    O    0.45600   0.17993   0.92012   1.000
    O679    O    0.95591   0.68019   0.92053   1.000
    O680    O    0.30432   0.19385   0.93268   1.000
    O681    O    0.80437   0.19376   0.93287   1.000
    O682    O    0.30433   0.69379   0.93287   1.000
    O683    O    0.80432   0.69440   0.93364   1.000
    O684    O    0.42534   0.20284   0.96254   1.000
    O685    O    0.92543   0.20286   0.96251   1.000
    O686    O    0.42541   0.70291   0.96254   1.000
    O687    O    0.92542   0.70316   0.96311   1.000
loop_
    _geom_bond_atom_site_label_1
    _geom_bond_atom_site_label_2
    _geom_bond_distance
    _geom_bond_site_symmetry_2
    _ccdc_geom_bond_type
    C261   O304      0.63908      .   S
    C137   O304      0.63908      .   S
    C261   O305      1.09115  1_554   S
    C1     O305      1.09115      .   S
    C260   O306      0.63974      .   S
    C136   O306      0.63974      .   S
    C260   O307      1.09172  1_554   S
    C0     O307      1.09172      .   S
    C262   O308      0.63958      .   S
    C138   O308      0.63958      .   S
    C262   O309      1.09157  1_554   S
    C2     O309      1.09157      .   S
    C263   O310      0.63980      .   S
    C139   O310      0.63980      .   S
    C263   O311      1.09021  1_554   S
    C3     O311      1.09021      .   S
    C40    O312      0.54460      .   S
    C152   O312      0.54460      .   S
    C42    O313      0.54443      .   S
    C154   O313      0.54443      .   S
    C41    O314      0.54461      .   S
    C153   O314      0.54461      .   S
    C43    O315      0.54460      .   S
    C155   O315      0.54460      .   S
    C264   O316      1.16182      .   S
    C8     O316      1.16182      .   S
    C264   O317      0.64145      .   S
    C140   O317      0.64145      .   S
    C267   O318      1.15828      .   S
    C11    O318      1.15828      .   S
    C267   O319      0.64157      .   S
    C143   O319      0.64157      .   S
    C266   O320      1.15817      .   S
    C10    O320      1.15817      .   S
    C266   O321      0.64159      .   S
    C142   O321      0.64159      .   S
    C265   O322      1.15803      .   S
    C9     O322      1.15803      .   S
    C265   O323      0.64155      .   S
    C141   O323      0.64155      .   S
    C136   O324      0.63754      .   S
    C256   O324      0.63754      .   S
    C136   O325      0.74377      .   S
    C148   O325      0.74377      .   S
    C137   O326      0.63772      .   S
    C257   O326      0.63772      .   S
    C137   O327      0.74402      .   S
    C149   O327      0.74402      .   S
    C138   O328      0.63761      .   S
    C258   O328      0.63761      .   S
    C138   O329      0.74389      .   S
    C150   O329      0.74389      .   S
    C139   O330      0.63746      .   S
    C259   O330      0.63746      .   S
    C139   O331      0.74370      .   S
    C151   O331      0.74370      .   S
    C152   O332      0.70066      .   S
    C148   O332      0.70066      .   S
    C152   O333      0.70005      .   S
    C156   O333      0.70005      .   S
    C154   O334      0.70078      .   S
    C150   O334      0.70078      .   S
    C154   O335      0.70025      .   S
    C158   O335      0.70025      .   S
    C153   O336      0.70068      .   S
    C149   O336      0.70068      .   S
    C153   O337      0.70005      .   S
    C157   O337      0.70005      .   S
    C155   O338      0.70075      .   S
    C151   O338      0.70075      .   S
    C155   O339      0.70017      .   S
    C159   O339      0.70017      .   S
    C256   O340      1.12695  1_455   S
    C10    O340      1.12695      .   S
    C258   O341      1.12609      .   S
    C8     O341      1.12609      .   S
    C259   O342      1.12725      .   S
    C9     O342      1.12725      .   S
    C257   O343      1.12466  1_455   S
    C11    O343      1.12466      .   S
    C8     O344      1.15361      .   S
    C268   O344      1.15361      .   S
    C8     O345      1.16942      .   S
    C248   O345      1.16942      .   S
    C8     O346      1.14955      .   S
    C252   O346      1.14955      .   S
    C8     O347      1.09077      .   S
    C212   O347      1.09077  1_556   S
    C10    O348      1.15509      .   S
    C270   O348      1.15509      .   S
    C10    O349      1.16715      .   S
    C250   O349      1.16715      .   S
    C10    O350      1.14936      .   S
    C254   O350      1.14936      .   S
    C10    O351      1.09101      .   S
    C214   O351      1.09101  1_556   S
    C9     O352      1.15494      .   S
    C269   O352      1.15494      .   S
    C9     O353      1.16701      .   S
    C249   O353      1.16701      .   S
    C9     O354      1.14940      .   S
    C253   O354      1.14940      .   S
    C9     O355      1.09054      .   S
    C213   O355      1.09054  1_556   S
    C11    O356      1.15696      .   S
    C271   O356      1.15696      .   S
    C11    O357      1.16850      .   S
    C251   O357      1.16850      .   S
    C11    O358      1.14853      .   S
    C255   O358      1.14853      .   S
    C11    O359      1.09144      .   S
    C215   O359      1.09144  1_556   S
    C148   O360      0.70053      .   S
    C168   O360      0.70053      .   S
    C150   O361      0.70022      .   S
    C170   O361      0.70022      .   S
    C149   O362      0.69627      .   S
    C169   O362      0.69627      .   S
    C151   O363      0.70051      .   S
    C171   O363      0.70051      .   S
    C140   O364      0.74387      .   S
    C156   O364      0.74387      .   S
    C140   O365      0.64408      .   S
    C268   O365      0.64408      .   S
    C141   O366      0.74380      .   S
    C157   O366      0.74380      .   S
    C141   O367      0.64395      .   S
    C269   O367      0.64395      .   S
    C142   O368      0.74389      .   S
    C158   O368      0.74389      .   S
    C142   O369      0.64392      .   S
    C270   O369      0.64392      .   S
    C143   O370      0.74359      .   S
    C159   O370      0.74359      .   S
    C143   O371      0.64385      .   S
    C271   O371      0.64385      .   S
    C156   O372      0.69964      .   S
    C160   O372      0.69964      .   S
    C157   O373      0.69957      .   S
    C161   O373      0.69957      .   S
    C158   O374      0.69961      .   S
    C162   O374      0.69961      .   S
    C159   O375      0.69910      .   S
    C163   O375      0.69910      .   S
    C169   O376      0.54571      .   S
    C49    O376      0.54571      .   S
    C169   O377      0.70258      .   S
    C165   O377      0.70258      .   S
    C168   O378      0.54427      .   S
    C48    O378      0.54427      .   S
    C168   O379      0.69956      .   S
    C164   O379      0.69956      .   S
    C170   O380      0.54437      .   S
    C50    O380      0.54437      .   S
    C170   O381      0.69978      .   S
    C166   O381      0.69978      .   S
    C171   O382      0.54426      .   S
    C51    O382      0.54426      .   S
    C171   O383      0.69941      .   S
    C167   O383      0.69941      .   S
    C248   O384      0.64110      .   S
    C108   O384      0.64110      .   S
    C249   O385      0.64144      .   S
    C109   O385      0.64144      .   S
    C250   O386      0.64141      .   S
    C110   O386      0.64141      .   S
    C251   O387      0.64124      .   S
    C111   O387      0.64124      .   S
    C160   O388      0.70037      .   S
    C164   O388      0.70037      .   S
    C160   O389      0.54451      .   S
    C44    O389      0.54451      .   S
    C161   O390      0.70037      .   S
    C165   O390      0.70037      .   S
    C161   O391      0.54448      .   S
    C45    O391      0.54448      .   S
    C162   O392      0.70037      .   S
    C166   O392      0.70037      .   S
    C162   O393      0.54452      .   S
    C46    O393      0.54452      .   S
    C163   O394      0.70018      .   S
    C167   O394      0.70018      .   S
    C163   O395      0.54463      .   S
    C47    O395      0.54463      .   S
    C252   O396      0.64384      .   S
    C108   O396      0.64384      .   S
    C254   O397      0.64366      .   S
    C110   O397      0.64366      .   S
    C253   O398      0.64352      .   S
    C109   O398      0.64352      .   S
    C255   O399      0.64384      .   S
    C111   O399      0.64384      .   S
    C164   O400      0.74336      .   S
    C144   O400      0.74336      .   S
    C165   O401      0.74343      .   S
    C145   O401      0.74343      .   S
    C166   O402      0.74340      .   S
    C146   O402      0.74340      .   S
    C167   O403      0.74286      .   S
    C147   O403      0.74286      .   S
    C108   O404      0.74338      .   S
    C128   O404      0.74338      .   S
    C109   O405      0.74372      .   S
    C129   O405      0.74372      .   S
    C110   O406      0.74337      .   S
    C130   O406      0.74337      .   S
    C111   O407      0.74364      .   S
    C131   O407      0.74364      .   S
    C145   O408      0.64347      .   S
    C277   O408      0.64347      .   S
    C145   O409      0.64157      .   S
    C273   O409      0.64157      .   S
    C146   O410      0.64348      .   S
    C278   O410      0.64348      .   S
    C146   O411      0.64157      .   S
    C274   O411      0.64157      .   S
    C144   O412      0.64353      .   S
    C276   O412      0.64353      .   S
    C144   O413      0.64149      .   S
    C272   O413      0.64149      .   S
    C147   O414      0.64350      .   S
    C279   O414      0.64350      .   S
    C147   O415      0.64132      .   S
    C275   O415      0.64132      .   S
    C32    O416      0.54450      .   S
    C126   O416      0.54450  1_655   S
    C35    O417      0.54428      .   S
    C125   O417      0.54428      .   S
    C34    O418      0.54454      .   S
    C124   O418      0.54454      .   S
    C33    O419      0.54452      .   S
    C127   O419      0.54452  1_655   S
    C128   O420      0.70044      .   S
    C124   O420      0.70044      .   S
    C128   O421      0.69966      .   S
    C132   O421      0.69966      .   S
    C130   O422      0.70042      .   S
    C126   O422      0.70042      .   S
    C130   O423      0.69963      .   S
    C134   O423      0.69963      .   S
    C129   O424      0.70033      .   S
    C125   O424      0.70033      .   S
    C129   O425      0.69969      .   S
    C133   O425      0.69969      .   S
    C131   O426      0.70049      .   S
    C127   O426      0.70049      .   S
    C131   O427      0.69970      .   S
    C135   O427      0.69970      .   S
    C277   O428      1.15095      .   S
    C4     O428      1.15095  1_545   S
    C278   O429      1.15129      .   S
    C7     O429      1.15129      .   S
    C276   O430      1.15164      .   S
    C5     O430      1.15164      .   S
    C279   O431      1.15124      .   S
    C6     O431      1.15124  1_545   S
    C126   O432      0.69857      .   S
    C122   O432      0.69857  1_455   S
    C125   O433      0.69981      .   S
    C121   O433      0.69981      .   S
    C124   O434      0.69947      .   S
    C120   O434      0.69947      .   S
    C127   O435      0.69867      .   S
    C123   O435      0.69867  1_455   S
    C273   O436      1.16716      .   S
    C4     O436      1.16716  1_545   S
    C274   O437      1.16726      .   S
    C7     O437      1.16726      .   S
    C272   O438      1.16799      .   S
    C5     O438      1.16799      .   S
    C275   O439      1.16837      .   S
    C6     O439      1.16837  1_545   S
    C36    O440      0.54431      .   S
    C132   O440      0.54431      .   S
    C38    O441      0.54429      .   S
    C134   O441      0.54429      .   S
    C37    O442      0.54430      .   S
    C133   O442      0.54430      .   S
    C39    O443      0.54430      .   S
    C135   O443      0.54430      .   S
    C132   O444      0.70046      .   S
    C112   O444      0.70046      .   S
    C134   O445      0.70063      .   S
    C114   O445      0.70063      .   S
    C133   O446      0.70061      .   S
    C113   O446      0.70061      .   S
    C135   O447      0.70073      .   S
    C115   O447      0.70073      .   S
    C246   O448      0.64398      .   S
    C106   O448      0.64398      .   S
    C246   O449      1.15462      .   S
    C6     O449      1.15462      .   S
    C244   O450      0.64381      .   S
    C104   O450      0.64381      .   S
    C244   O451      1.15687      .   S
    C4     O451      1.15687      .   S
    C247   O452      0.64384      .   S
    C107   O452      0.64384      .   S
    C247   O453      1.15699      .   S
    C7     O453      1.15699      .   S
    C245   O454      0.64402      .   S
    C105   O454      0.64402      .   S
    C245   O455      1.15538      .   S
    C5     O455      1.15538      .   S
    C122   O456      0.75003      .   S
    C104   O456      0.75003      .   S
    C122   O457      0.69497  1_455   S
    C118   O457      0.69497      .   S
    C121   O458      0.74401      .   S
    C107   O458      0.74401      .   S
    C121   O459      0.70015      .   S
    C117   O459      0.70015      .   S
    C120   O460      0.74396      .   S
    C106   O460      0.74396      .   S
    C120   O461      0.70005      .   S
    C116   O461      0.70005      .   S
    C123   O462      0.74978      .   S
    C105   O462      0.74978      .   S
    C123   O463      0.69519  1_455   S
    C119   O463      0.69519      .   S
    C104   O464      0.64151      .   S
    C240   O464      0.64151      .   S
    C107   O465      0.64153      .   S
    C243   O465      0.64153      .   S
    C105   O466      0.64166      .   S
    C241   O466      0.64166      .   S
    C106   O467      0.64146      .   S
    C242   O467      0.64146      .   S
    C114   O468      0.70078      .   S
    C118   O468      0.70078      .   S
    C114   O469      0.74409      .   S
    C102   O469      0.74409      .   S
    C112   O470      0.70078      .   S
    C116   O470      0.70078      .   S
    C112   O471      0.74409      .   S
    C100   O471      0.74409      .   S
    C113   O472      0.70079      .   S
    C117   O472      0.70079      .   S
    C113   O473      0.74410      .   S
    C101   O473      0.74410      .   S
    C115   O474      0.70072      .   S
    C119   O474      0.70072      .   S
    C115   O475      0.74414      .   S
    C103   O475      0.74414      .   S
    C4     O476      1.12388      .   S
    C232   O476      1.12388      .   S
    C4     O477      1.15677      .   S
    C240   O477      1.15677      .   S
    C4     O478      1.09078  1_545   S
    C285   O478      1.09078      .   S
    C7     O479      1.12367      .   S
    C235   O479      1.12367      .   S
    C7     O480      1.15694      .   S
    C243   O480      1.15694      .   S
    C7     O481      1.09086      .   S
    C286   O481      1.09086      .   S
    C5     O482      1.12400      .   S
    C233   O482      1.12400      .   S
    C5     O483      1.15926      .   S
    C241   O483      1.15926      .   S
    C5     O484      1.09082      .   S
    C284   O484      1.09082      .   S
    C6     O485      1.12341      .   S
    C234   O485      1.12341      .   S
    C6     O486      1.16068      .   S
    C242   O486      1.16068      .   S
    C6     O487      1.09040  1_545   S
    C287   O487      1.09040      .   S
    C232   O488      0.63742      .   S
    C100   O488      0.63742      .   S
    C233   O489      0.63750      .   S
    C101   O489      0.63750      .   S
    C234   O490      0.63753      .   S
    C102   O490      0.63753      .   S
    C235   O491      0.63747      .   S
    C103   O491      0.63747      .   S
    C118   O492      0.54461      .   S
    C30    O492      0.54461      .   S
    C117   O493      0.54457      .   S
    C29    O493      0.54457      .   S
    C116   O494      0.54455      .   S
    C28    O494      0.54455      .   S
    C119   O495      0.54459      .   S
    C31    O495      0.54459      .   S
    C100   O496      0.63924      .   S
    C236   O496      0.63924      .   S
    C102   O497      0.63909      .   S
    C238   O497      0.63909      .   S
    C101   O498      0.63912      .   S
    C237   O498      0.63912      .   S
    C103   O499      0.63932      .   S
    C239   O499      0.63932      .   S
    C236   O500      1.09024      .   S
    C13    O500      1.09024  1_565   S
    C238   O501      1.09013      .   S
    C15    O501      1.09013  1_565   S
    C237   O502      1.09048      .   S
    C12    O502      1.09048      .   S
    C239   O503      1.09031      .   S
    C14    O503      1.09031      .   S
    C287   O504      0.63937      .   S
    C175   O504      0.63937      .   S
    C285   O505      0.63944      .   S
    C173   O505      0.63944      .   S
    C286   O506      0.63945      .   S
    C174   O506      0.63945      .   S
    C284   O507      0.63929      .   S
    C172   O507      0.63929      .   S
    C55    O508      0.54457      .   S
    C191   O508      0.54457      .   S
    C53    O509      0.54458      .   S
    C189   O509      0.54458      .   S
    C54    O510      0.54462      .   S
    C190   O510      0.54462      .   S
    C52    O511      0.54461      .   S
    C188   O511      0.54461      .   S
    C289   O512      1.15876      .   S
    C13    O512      1.15876      .   S
    C289   O513      0.64119      .   S
    C177   O513      0.64119      .   S
    C291   O514      1.15911      .   S
    C15    O514      1.15911      .   S
    C291   O515      0.64144      .   S
    C179   O515      0.64144      .   S
    C288   O516      1.15929      .   S
    C12    O516      1.15929      .   S
    C288   O517      0.64147      .   S
    C176   O517      0.64147      .   S
    C290   O518      1.15975      .   S
    C14    O518      1.15975      .   S
    C290   O519      0.64172      .   S
    C178   O519      0.64172      .   S
    C175   O520      0.63749      .   S
    C283   O520      0.63749      .   S
    C175   O521      0.74414      .   S
    C187   O521      0.74414      .   S
    C173   O522      0.63745      .   S
    C281   O522      0.63745      .   S
    C173   O523      0.74417      .   S
    C185   O523      0.74417      .   S
    C174   O524      0.63751      .   S
    C282   O524      0.63751      .   S
    C174   O525      0.74428      .   S
    C186   O525      0.74428      .   S
    C172   O526      0.63745      .   S
    C280   O526      0.63745      .   S
    C172   O527      0.74409      .   S
    C184   O527      0.74409      .   S
    C191   O528      0.70066      .   S
    C187   O528      0.70066      .   S
    C191   O529      0.70013      .   S
    C195   O529      0.70013      .   S
    C189   O530      0.70067      .   S
    C185   O530      0.70067      .   S
    C189   O531      0.69991      .   S
    C193   O531      0.69991  1_655   S
    C190   O532      0.70071      .   S
    C186   O532      0.70071      .   S
    C190   O533      0.70012      .   S
    C194   O533      0.70012      .   S
    C188   O534      0.70071      .   S
    C184   O534      0.70071      .   S
    C188   O535      0.70007      .   S
    C192   O535      0.70007  1_655   S
    C283   O536      1.12280      .   S
    C15    O536      1.12280      .   S
    C281   O537      1.12287      .   S
    C13    O537      1.12287      .   S
    C280   O538      1.12295      .   S
    C12    O538      1.12295      .   S
    C282   O539      1.12332      .   S
    C14    O539      1.12332      .   S
    C13    O540      1.15624      .   S
    C293   O540      1.15624      .   S
    C13    O541      1.16903  1_565   S
    C224   O541      1.16903      .   S
    C13    O542      1.14892  1_565   S
    C228   O542      1.14892      .   S
    C15    O543      1.15608      .   S
    C295   O543      1.15608      .   S
    C15    O544      1.16971  1_565   S
    C226   O544      1.16971      .   S
    C15    O545      1.14909  1_565   S
    C230   O545      1.14909      .   S
    C12    O546      1.15588      .   S
    C292   O546      1.15588      .   S
    C12    O547      1.16980      .   S
    C225   O547      1.16980      .   S
    C12    O548      1.14886      .   S
    C229   O548      1.14886      .   S
    C14    O549      1.15513      .   S
    C294   O549      1.15513      .   S
    C14    O550      1.16822      .   S
    C227   O550      1.16822      .   S
    C14    O551      1.15136      .   S
    C231   O551      1.15136      .   S
    C187   O552      0.70077      .   S
    C207   O552      0.70077      .   S
    C185   O553      0.70081      .   S
    C205   O553      0.70081      .   S
    C186   O554      0.70077      .   S
    C206   O554      0.70077      .   S
    C184   O555      0.70074      .   S
    C204   O555      0.70074      .   S
    C177   O556      0.74382      .   S
    C195   O556      0.74382      .   S
    C177   O557      0.64412      .   S
    C293   O557      0.64412      .   S
    C179   O558      0.74375      .   S
    C193   O558      0.74375      .   S
    C179   O559      0.64385      .   S
    C295   O559      0.64385      .   S
    C176   O560      0.74388      .   S
    C194   O560      0.74388      .   S
    C176   O561      0.64393      .   S
    C292   O561      0.64393      .   S
    C178   O562      0.74399      .   S
    C192   O562      0.74399      .   S
    C178   O563      0.64397      .   S
    C294   O563      0.64397      .   S
    C195   O564      0.69938      .   S
    C199   O564      0.69938      .   S
    C193   O565      0.69974  1_655   S
    C197   O565      0.69974      .   S
    C194   O566      0.69942      .   S
    C198   O566      0.69942      .   S
    C192   O567      0.69956  1_655   S
    C196   O567      0.69956      .   S
    C207   O568      0.54429      .   S
    C63    O568      0.54429      .   S
    C207   O569      0.69974      .   S
    C203   O569      0.69974      .   S
    C205   O570      0.54433      .   S
    C61    O570      0.54433      .   S
    C205   O571      0.69951      .   S
    C201   O571      0.69951      .   S
    C204   O572      0.54429      .   S
    C60    O572      0.54429      .   S
    C204   O573      0.69973      .   S
    C200   O573      0.69973      .   S
    C206   O574      0.54431      .   S
    C62    O574      0.54431      .   S
    C206   O575      0.69977      .   S
    C202   O575      0.69977      .   S
    C224   O576      0.64135      .   S
    C72    O576      0.64135      .   S
    C226   O577      0.64126      .   S
    C74    O577      0.64126      .   S
    C225   O578      0.64125      .   S
    C73    O578      0.64125      .   S
    C199   O579      0.70039      .   S
    C203   O579      0.70039      .   S
    C199   O580      0.54451      .   S
    C57    O580      0.54451      .   S
    C227   O581      0.64139      .   S
    C75    O581      0.64139      .   S
    C197   O582      0.70033      .   S
    C201   O582      0.70033      .   S
    C197   O583      0.54450  1_455   S
    C59    O583      0.54450      .   S
    C198   O584      0.70042      .   S
    C202   O584      0.70042      .   S
    C198   O585      0.54452      .   S
    C56    O585      0.54452      .   S
    C196   O586      0.70049      .   S
    C200   O586      0.70049      .   S
    C196   O587      0.54419  1_455   S
    C58    O587      0.54419      .   S
    C230   O588      0.64369      .   S
    C74    O588      0.64369      .   S
    C228   O589      0.64368      .   S
    C72    O589      0.64368      .   S
    C229   O590      0.64371      .   S
    C73    O590      0.64371      .   S
    C231   O591      0.64358      .   S
    C75    O591      0.64358      .   S
    C203   O592      0.74362      .   S
    C183   O592      0.74362      .   S
    C201   O593      0.74395      .   S
    C181   O593      0.74395      .   S
    C200   O594      0.74370      .   S
    C180   O594      0.74370      .   S
    C202   O595      0.74355      .   S
    C182   O595      0.74355      .   S
    C72    O596      0.74341      .   S
    C92    O596      0.74341      .   S
    C74    O597      0.74338      .   S
    C94    O597      0.74338      .   S
    C73    O598      0.74332      .   S
    C93    O598      0.74332      .   S
    C75    O599      0.74332      .   S
    C95    O599      0.74332      .   S
    C183   O600      0.64341      .   S
    C303   O600      0.64341      .   S
    C183   O601      0.64152      .   S
    C299   O601      0.64152      .   S
    C21    O602      0.54455      .   S
    C89    O602      0.54455      .   S
    C20    O603      0.54452      .   S
    C88    O603      0.54452      .   S
    C22    O604      0.54449      .   S
    C90    O604      0.54449      .   S
    C181   O605      0.64366      .   S
    C301   O605      0.64366      .   S
    C181   O606      0.64137      .   S
    C297   O606      0.64137      .   S
    C180   O607      0.64376      .   S
    C300   O607      0.64376      .   S
    C180   O608      0.64130      .   S
    C296   O608      0.64130      .   S
    C182   O609      0.64367      .   S
    C302   O609      0.64367      .   S
    C182   O610      0.64135      .   S
    C298   O610      0.64135      .   S
    C23    O611      0.54452      .   S
    C91    O611      0.54452      .   S
    C92    O612      0.70031      .   S
    C88    O612      0.70031      .   S
    C92    O613      0.69966      .   S
    C96    O613      0.69966      .   S
    C94    O614      0.70029      .   S
    C90    O614      0.70029      .   S
    C94    O615      0.69958      .   S
    C98    O615      0.69958      .   S
    C93    O616      0.70021      .   S
    C89    O616      0.70021      .   S
    C93    O617      0.69960      .   S
    C97    O617      0.69960      .   S
    C95    O618      0.70035      .   S
    C91    O618      0.70035      .   S
    C95    O619      0.69951      .   S
    C99    O619      0.69951      .   S
    C303   O620      1.15029      .   S
    C3     O620      1.15029      .   S
    C300   O621      1.14898      .   S
    C0     O621      1.14898      .   S
    C301   O622      1.14933      .   S
    C1     O622      1.14933      .   S
    C302   O623      1.14914      .   S
    C2     O623      1.14914      .   S
    C88    O624      0.69934      .   S
    C84    O624      0.69934      .   S
    C89    O625      0.69967      .   S
    C85    O625      0.69967      .   S
    C90    O626      0.69902      .   S
    C86    O626      0.69902      .   S
    C91    O627      0.65372      .   S
    C87    O627      0.65372      .   S
    C299   O628      1.16748      .   S
    C3     O628      1.16748      .   S
    C297   O629      1.16840      .   S
    C1     O629      1.16840      .   S
    C296   O630      1.16889      .   S
    C0     O630      1.16889      .   S
    C298   O631      1.16853      .   S
    C2     O631      1.16853      .   S
    C24    O632      0.54430      .   S
    C96    O632      0.54430      .   S
    C26    O633      0.54428      .   S
    C98    O633      0.54428      .   S
    C25    O634      0.54430      .   S
    C97    O634      0.54430      .   S
    C27    O635      0.54426      .   S
    C99    O635      0.54426      .   S
    C96    O636      0.70074      .   S
    C76    O636      0.70074      .   S
    C98    O637      0.70077      .   S
    C78    O637      0.70077      .   S
    C97    O638      0.70080      .   S
    C77    O638      0.70080      .   S
    C99    O639      0.70044      .   S
    C79    O639      0.70044      .   S
    C221   O640      0.64419      .   S
    C69    O640      0.64419      .   S
    C221   O641      1.15693      .   S
    C1     O641      1.15693      .   S
    C222   O642      0.64382      .   S
    C70    O642      0.64382      .   S
    C222   O643      1.15683      .   S
    C2     O643      1.15683      .   S
    C220   O644      0.64379      .   S
    C68    O644      0.64379      .   S
    C220   O645      1.15696      .   S
    C0     O645      1.15696      .   S
    C223   O646      0.64381      .   S
    C71    O646      0.64381      .   S
    C223   O647      1.15454      .   S
    C3     O647      1.15454      .   S
    C87    O648      0.75982      .   S
    C71    O648      0.75982      .   S
    C87    O649      0.73680      .   S
    C83    O649      0.73680      .   S
    C84    O650      0.74377      .   S
    C68    O650      0.74377      .   S
    C84    O651      0.70012      .   S
    C80    O651      0.70012      .   S
    C86    O652      0.74387      .   S
    C70    O652      0.74387      .   S
    C86    O653      0.70037      .   S
    C82    O653      0.70037      .   S
    C85    O654      0.74376      .   S
    C69    O654      0.74376      .   S
    C85    O655      0.70015      .   S
    C81    O655      0.70015      .   S
    C68    O656      0.64164      .   S
    C216   O656      0.64164      .   S
    C70    O657      0.64159      .   S
    C218   O657      0.64159      .   S
    C69    O658      0.64158      .   S
    C217   O658      0.64158      .   S
    C71    O659      0.64170      .   S
    C219   O659      0.64170      .   S
    C76    O660      0.70076      .   S
    C80    O660      0.70076      .   S
    C76    O661      0.74402      .   S
    C64    O661      0.74402      .   S
    C78    O662      0.70077      .   S
    C82    O662      0.70077      .   S
    C78    O663      0.74397      .   S
    C66    O663      0.74397      .   S
    C77    O664      0.70074      .   S
    C81    O664      0.70074      .   S
    C77    O665      0.74395      .   S
    C65    O665      0.74395      .   S
    C79    O666      0.70070      .   S
    C83    O666      0.70070      .   S
    C79    O667      0.74374      .   S
    C67    O667      0.74374      .   S
    C1     O668      1.12602      .   S
    C211   O668      1.12602  1_655   S
    C1     O669      1.15871      .   S
    C217   O669      1.15871      .   S
    C2     O670      1.12625      .   S
    C208   O670      1.12625      .   S
    C2     O671      1.15849      .   S
    C218   O671      1.15849      .   S
    C0     O672      1.12619      .   S
    C210   O672      1.12619  1_655   S
    C0     O673      1.15851      .   S
    C216   O673      1.15851      .   S
    C3     O674      1.12695      .   S
    C209   O674      1.12695      .   S
    C3     O675      1.15828      .   S
    C219   O675      1.15828      .   S
    C210   O676      0.63770      .   S
    C66    O676      0.63770      .   S
    C209   O677      0.63747      .   S
    C65    O677      0.63747      .   S
    C208   O678      0.63762      .   S
    C64    O678      0.63762      .   S
    C211   O679      0.63771      .   S
    C67    O679      0.63771      .   S
    C80    O680      0.54446      .   S
    C16    O680      0.54446      .   S
    C82    O681      0.54462      .   S
    C18    O681      0.54462      .   S
    C81    O682      0.54461      .   S
    C17    O682      0.54461      .   S
    C83    O683      0.54464      .   S
    C19    O683      0.54464      .   S
    C64    O684      0.63970      .   S
    C212   O684      0.63970      .   S
    C66    O685      0.63950      .   S
    C214   O685      0.63950      .   S
    C65    O686      0.63988      .   S
    C213   O686      0.63988      .   S
    C67    O687      0.63952      .   S
    C215   O687      0.63952      .   S
