# CIF file generated by openbabel 2.4.90, see http://openbabel.sf.net
data_I
_chemical_name_common ''
_cell_length_a 20.451
_cell_length_b 24.817
_cell_length_c 15.846
_cell_angle_alpha 89.76
_cell_angle_beta 89.797
_cell_angle_gamma 96.677
_space_group_name_H-M_alt 'P 1'
_space_group_name_Hall 'P 1'
loop_
    _symmetry_equiv_pos_as_xyz
    x,y,z
loop_
    _atom_site_label
    _atom_site_type_symbol
    _atom_site_fract_x
    _atom_site_fract_y
    _atom_site_fract_z
    _atom_site_occupancy
    Zr0     Zr   0.07942   0.22874   0.89539   1.000
    Zr1     Zr   0.07940   0.72864   0.89529   1.000
    Zr2     Zr   0.57943   0.22863   0.89538   1.000
    Zr3     Zr   0.57924   0.72916   0.89573   1.000
    Zr4     Zr   0.17072   0.02036   0.39273   1.000
    Zr5     Zr   0.17064   0.52044   0.39309   1.000
    Zr6     Zr   0.67047   0.02086   0.39313   1.000
    Zr7     Zr   0.67073   0.52035   0.39289   1.000
    Zr8     Zr   0.42062   0.27104   0.10356   1.000
    Zr9     Zr   0.42095   0.77083   0.10389   1.000
    Zr10    Zr   0.92096   0.27084   0.10382   1.000
    Zr11    Zr   0.92061   0.77100   0.10462   1.000
    Zr12    Zr   0.32951   0.47909   0.60582   1.000
    Zr13    Zr   0.32946   0.97920   0.60560   1.000
    Zr14    Zr   0.82941   0.47947   0.60701   1.000
    Zr15    Zr   0.82947   0.97911   0.60570   1.000
    N16     N    0.81078   0.13827   0.84795   1.000
    O17     O    0.80439   0.07142   0.74823   1.000
    O18     O    0.70888   0.16632   0.85809   1.000
    O19     O    0.72104   0.17959   0.88308   1.000
    O20     O    0.92123   0.16981   0.87467   1.000
    O21     O    0.86629   0.19180   0.94798   1.000
    O22     O    0.83164   0.07382   0.75146   1.000
    N23     N    0.31071   0.13830   0.84789   1.000
    O24     O    0.22099   0.17964   0.88305   1.000
    O25     O    0.33158   0.07386   0.75141   1.000
    O26     O    0.30435   0.07149   0.74809   1.000
    O27     O    0.36615   0.19186   0.94790   1.000
    O28     O    0.20882   0.16638   0.85806   1.000
    O29     O    0.42118   0.16980   0.87465   1.000
    N30     N    0.93956   0.11109   0.34687   1.000
    O31     O    0.04155   0.08315   0.35677   1.000
    O32     O    0.82895   0.07936   0.37345   1.000
    O33     O    0.02907   0.06930   0.38108   1.000
    O34     O    0.88407   0.05776   0.44815   1.000
    O35     O    0.91876   0.17590   0.25039   1.000
    O36     O    0.94598   0.17821   0.24660   1.000
    N37     N    0.43955   0.11150   0.34718   1.000
    O38     O    0.52912   0.07013   0.38203   1.000
    O39     O    0.32899   0.07944   0.37346   1.000
    O40     O    0.44585   0.17849   0.24665   1.000
    O41     O    0.41863   0.17617   0.25041   1.000
    O42     O    0.54142   0.08352   0.35701   1.000
    O43     O    0.38405   0.05801   0.44825   1.000
    N44     N    0.18962   0.86125   0.15052   1.000
    O45     O    0.29161   0.83336   0.14016   1.000
    O46     O    0.27920   0.81957   0.11600   1.000
    O47     O    0.07905   0.82967   0.12451   1.000
    O48     O    0.13402   0.80767   0.05083   1.000
    O49     O    0.19593   0.92814   0.25029   1.000
    O50     O    0.16873   0.92588   0.24659   1.000
    N51     N    0.43961   0.61108   0.34697   1.000
    O52     O    0.38410   0.55774   0.44824   1.000
    O53     O    0.32902   0.57923   0.37348   1.000
    O54     O    0.41879   0.67588   0.25048   1.000
    O55     O    0.54158   0.58314   0.35688   1.000
    O56     O    0.44601   0.67819   0.24666   1.000
    O57     O    0.52910   0.56930   0.38122   1.000
    N58     N    0.68944   0.86177   0.15114   1.000
    O59     O    0.66850   0.92635   0.24714   1.000
    O60     O    0.79128   0.83357   0.14135   1.000
    O61     O    0.63386   0.80817   0.05135   1.000
    O62     O    0.69571   0.92861   0.25079   1.000
    O63     O    0.77912   0.82026   0.11640   1.000
    O64     O    0.57903   0.83009   0.12464   1.000
    N65     N    0.68961   0.36132   0.15056   1.000
    O66     O    0.66872   0.42591   0.24666   1.000
    O67     O    0.63399   0.30772   0.05090   1.000
    O68     O    0.79160   0.33340   0.14017   1.000
    O69     O    0.69592   0.42817   0.25037   1.000
    O70     O    0.57904   0.32980   0.12422   1.000
    O71     O    0.77919   0.31961   0.11600   1.000
    N72     N    0.93951   0.61114   0.34762   1.000
    O73     O    0.82899   0.57921   0.37383   1.000
    O74     O    0.04145   0.58315   0.35730   1.000
    O75     O    0.88401   0.55799   0.44921   1.000
    O76     O    0.94584   0.67823   0.24724   1.000
    O77     O    0.02909   0.56952   0.38202   1.000
    O78     O    0.91862   0.67590   0.25102   1.000
    N79     N    0.31076   0.63829   0.84797   1.000
    O80     O    0.30440   0.57141   0.74831   1.000
    O81     O    0.22101   0.67961   0.88306   1.000
    O82     O    0.20886   0.66633   0.85806   1.000
    O83     O    0.36628   0.69182   0.94803   1.000
    O84     O    0.33164   0.57383   0.75151   1.000
    O85     O    0.42117   0.66995   0.87477   1.000
    N86     N    0.56038   0.88851   0.65187   1.000
    O87     O    0.47083   0.92994   0.61707   1.000
    O88     O    0.58129   0.82390   0.74869   1.000
    O89     O    0.45853   0.91655   0.64211   1.000
    O90     O    0.67097   0.92045   0.62550   1.000
    O91     O    0.55408   0.82162   0.75259   1.000
    O92     O    0.61589   0.94189   0.55049   1.000
    N93     N    0.06042   0.38871   0.65246   1.000
    O94     O    0.97086   0.43029   0.61798   1.000
    O95     O    0.11596   0.44194   0.55096   1.000
    O96     O    0.05414   0.32159   0.75283   1.000
    O97     O    0.95852   0.41672   0.64278   1.000
    O98     O    0.17102   0.42052   0.62587   1.000
    O99     O    0.08136   0.32393   0.74905   1.000
    N100    N    0.18966   0.36180   0.15006   1.000
    O101    O    0.07917   0.33006   0.12402   1.000
    O102    O    0.19591   0.42847   0.25019   1.000
    O103    O    0.29150   0.33370   0.13986   1.000
    O104    O    0.27926   0.32037   0.11500   1.000
    O105    O    0.13401   0.30802   0.05064   1.000
    O106    O    0.16871   0.42619   0.24651   1.000
    N107    N    0.06046   0.88851   0.65219   1.000
    O108    O    0.05418   0.82146   0.75266   1.000
    O109    O    0.95857   0.91651   0.64232   1.000
    O110    O    0.17102   0.92046   0.62565   1.000
    O111    O    0.08140   0.82379   0.74889   1.000
    O112    O    0.11600   0.94177   0.55061   1.000
    O113    O    0.97087   0.92988   0.61727   1.000
    N114    N    0.81048   0.63853   0.84880   1.000
    O115    O    0.86608   0.69205   0.94876   1.000
    O116    O    0.92102   0.66997   0.87514   1.000
    O117    O    0.72093   0.68028   0.88353   1.000
    O118    O    0.83137   0.57394   0.75295   1.000
    O119    O    0.70852   0.66651   0.85936   1.000
    O120    O    0.80417   0.57167   0.74926   1.000
    N121    N    0.56050   0.38855   0.65237   1.000
    O122    O    0.58144   0.32381   0.74903   1.000
    O123    O    0.55422   0.32147   0.75279   1.000
    O124    O    0.47091   0.42989   0.61740   1.000
    O125    O    0.45861   0.41652   0.64246   1.000
    O126    O    0.61602   0.44182   0.55083   1.000
    O127    O    0.67106   0.42058   0.62615   1.000
loop_
    _geom_bond_atom_site_label_1
    _geom_bond_atom_site_label_2
    _geom_bond_distance
    _geom_bond_site_symmetry_2
    _ccdc_geom_bond_type
    N16    O17       2.28906      .   S
    Zr15   O17       3.30457  1_565   S
    N16    O18       2.27788      .   S
    Zr2    O18       3.27069      .   S
    N16    O19       2.27259      .   S
    Zr2    O19       3.27466      .   S
    N16    O20       2.34380      .   S
    Zr0    O20       3.40935  1_455   S
    N16    O21       2.29043      .   S
    Zr10   O21       3.27805  1_554   S
    N16    O22       2.29189      .   S
    Zr15   O22       3.29899  1_565   S
    N23    O24       2.27251      .   S
    Zr0    O24       3.27469      .   S
    N23    O25       2.29177      .   S
    Zr13   O25       3.29869  1_565   S
    N23    O26       2.28922      .   S
    Zr13   O26       3.30399  1_565   S
    N23    O27       2.28991      .   S
    Zr8    O27       3.27675  1_554   S
    N23    O28       2.27794      .   S
    Zr0    O28       3.27064      .   S
    N23    O29       2.34399      .   S
    Zr2    O29       3.40972      .   S
    N30    O31       2.27891  1_655   S
    Zr4    O31       3.26980      .   S
    N30    O32       2.34323      .   S
    Zr6    O32       3.40660      .   S
    N30    O33       2.27242  1_655   S
    Zr4    O33       3.27429      .   S
    N30    O34       2.28803      .   S
    Zr15   O34       3.27439  1_565   S
    N30    O35       2.29090      .   S
    Zr10   O35       3.29804      .   S
    N30    O36       2.28954      .   S
    Zr10   O36       3.30211      .   S
    N37    O38       2.27043      .   S
    Zr6    O38       3.27194      .   S
    N37    O39       2.34331      .   S
    Zr4    O39       3.40659      .   S
    N37    O40       2.29009      .   S
    Zr8    O40       3.30490      .   S
    N37    O41       2.29212      .   S
    Zr8    O41       3.30000      .   S
    N37    O42       2.27703      .   S
    Zr6    O42       3.26628      .   S
    N37    O43       2.28788      .   S
    Zr13   O43       3.27426  1_565   S
    N44    O45       2.27830      .   S
    Zr9    O45       3.26908      .   S
    N44    O46       2.27230      .   S
    Zr9    O46       3.27380      .   S
    N44    O47       2.34414      .   S
    Zr11   O47       3.41052  1_655   S
    N44    O48       2.28793      .   S
    Zr1    O48       3.27428  1_556   S
    N44    O49       2.29034      .   S
    Zr4    O49       3.30265  1_545   S
    N44    O50       2.29075      .   S
    Zr4    O50       3.29953  1_545   S
    N51    O52       2.28824      .   S
    Zr12   O52       3.27472      .   S
    N51    O53       2.34341      .   S
    Zr5    O53       3.40685      .   S
    N51    O54       2.29105      .   S
    Zr9    O54       3.29827      .   S
    N51    O55       2.27854      .   S
    Zr7    O55       3.26960      .   S
    N51    O56       2.28984      .   S
    Zr9    O56       3.30220      .   S
    N51    O57       2.27214      .   S
    Zr7    O57       3.27404      .   S
    N58    O59       2.28952      .   S
    Zr6    O59       3.29826  1_545   S
    N58    O60       2.27797      .   S
    Zr11   O60       3.27059      .   S
    N58    O61       2.28919      .   S
    Zr3    O61       3.27482  1_556   S
    N58    O62       2.28822      .   S
    Zr6    O62       3.30217  1_545   S
    N58    O63       2.27256      .   S
    Zr11   O63       3.27458      .   S
    N58    O64       2.34302      .   S
    Zr9    O64       3.41003      .   S
    N65    O66       2.29043      .   S
    Zr7    O66       3.29954      .   S
    N65    O67       2.28814      .   S
    Zr2    O67       3.27426  1_556   S
    N65    O68       2.27881      .   S
    Zr10   O68       3.26988      .   S
    N65    O69       2.29011      .   S
    Zr7    O69       3.30256      .   S
    N65    O70       2.34454      .   S
    Zr8    O70       3.41218      .   S
    N65    O71       2.27288      .   S
    Zr10   O71       3.27455      .   S
    N72    O73       2.34163      .   S
    Zr7    O73       3.40460      .   S
    N72    O74       2.27805  1_655   S
    Zr5    O74       3.26857      .   S
    N72    O75       2.28919      .   S
    Zr14   O75       3.27576      .   S
    N72    O76       2.29029      .   S
    Zr11   O76       3.30378      .   S
    N72    O77       2.27203  1_655   S
    Zr5    O77       3.27344      .   S
    N72    O78       2.29186      .   S
    Zr11   O78       3.29919      .   S
    N79    O80       2.28890      .   S
    Zr12   O80       3.30447      .   S
    N79    O81       2.27247      .   S
    Zr1    O81       3.27466      .   S
    N79    O82       2.27787      .   S
    Zr1    O82       3.27059      .   S
    N79    O83       2.29071      .   S
    Zr9    O83       3.27796  1_554   S
    N79    O84       2.29186      .   S
    Zr12   O84       3.29874      .   S
    N79    O85       2.34375      .   S
    Zr3    O85       3.40978      .   S
    N86    O87       2.27078      .   S
    Zr13   O87       3.27255      .   S
    N86    O88       2.29162      .   S
    Zr3    O88       3.29973      .   S
    N86    O89       2.27717      .   S
    Zr13   O89       3.26766      .   S
    N86    O90       2.34345      .   S
    Zr15   O90       3.40828      .   S
    N86    O91       2.29034      .   S
    Zr3    O91       3.30363      .   S
    N86    O92       2.28993      .   S
    Zr6    O92       3.27645  1_545   S
    N93    O94       2.27135  1_455   S
    Zr14   O94       3.27272      .   S
    N93    O95       2.28954      .   S
    Zr5    O95       3.27669      .   S
    N93    O96       2.29082      .   S
    Zr0    O96       3.30485      .   S
    N93    O97       2.27752  1_455   S
    Zr14   O97       3.26761      .   S
    N93    O98       2.34351      .   S
    Zr12   O98       3.40778      .   S
    N93    O99       2.29240      .   S
    Zr0    O99       3.30026      .   S
    N100   O101      2.34354      .   S
    Zr10   O101      3.41120  1_655   S
    N100   O102      2.29033      .   S
    Zr5    O102      3.30366      .   S
    N100   O103      2.27737      .   S
    Zr8    O103      3.26716      .   S
    N100   O104      2.27138      .   S
    Zr8    O104      3.27278      .   S
    N100   O105      2.28799      .   S
    Zr0    O105      3.27405  1_556   S
    N100   O106      2.29082      .   S
    Zr5    O106      3.30045      .   S
    N107   O108      2.29058      .   S
    Zr1    O108      3.30475      .   S
    N107   O109      2.27750  1_455   S
    Zr15   O109      3.26770      .   S
    N107   O110      2.34351      .   S
    Zr13   O110      3.40808      .   S
    N107   O111      2.29242      .   S
    Zr1    O111      3.30013      .   S
    N107   O112      2.29079      .   S
    Zr4    O112      3.27844  1_545   S
    N107   O113      2.27084  1_455   S
    Zr15   O113      3.27286      .   S
    N114   O115      2.29027      .   S
    Zr11   O115      3.27638  1_554   S
    N114   O116      2.34380      .   S
    Zr1    O116      3.40983  1_455   S
    N114   O117      2.27373      .   S
    Zr3    O117      3.27420      .   S
    N114   O118      2.28771      .   S
    Zr14   O118      3.29709      .   S
    N114   O119      2.27885      .   S
    Zr3    O119      3.26997      .   S
    N114   O120      2.28721      .   S
    Zr14   O120      3.30041      .   S
    N121   O122      2.29234      .   S
    Zr2    O122      3.29996      .   S
    N121   O123      2.29051      .   S
    Zr2    O123      3.30463      .   S
    N121   O124      2.27076      .   S
    Zr12   O124      3.27265      .   S
    N121   O125      2.27739      .   S
    Zr12   O125      3.26744      .   S
    N121   O126      2.29033      .   S
    Zr7    O126      3.27804      .   S
    N121   O127      2.34300      .   S
    Zr14   O127      3.40642      .   S
