# CIF file generated by openbabel 2.4.90, see http://openbabel.sf.net
data_I
_chemical_name_common ''
_cell_length_a 9.0755
_cell_length_b 9.1395
_cell_length_c 18.989
_cell_angle_alpha 89.998
_cell_angle_beta 89.993
_cell_angle_gamma 70.226
_space_group_name_H-M_alt 'P 1'
_space_group_name_Hall 'P 1'
loop_
    _symmetry_equiv_pos_as_xyz
    x,y,z
loop_
    _atom_site_label
    _atom_site_type_symbol
    _atom_site_fract_x
    _atom_site_fract_y
    _atom_site_fract_z
    _atom_site_occupancy
    Ga0     Ga   0.03688   0.21092   0.18345   1.000
    Ga1     Ga   0.51815   0.29967   0.17722   1.000
    Ga2     Ga   0.36143   0.15166   0.91034   1.000
    Ga3     Ga   0.46947   0.28907   0.68349   1.000
    Ga4     Ga   0.98817   0.20008   0.67653   1.000
    Ga5     Ga   0.86141   0.65152   0.58955   1.000
    Ga6     Ga   0.96945   0.78890   0.81646   1.000
    Ga7     Ga   0.48809   0.70028   0.82277   1.000
    Ga8     Ga   0.64484   0.84831   0.08958   1.000
    Ga9     Ga   0.53683   0.71103   0.31653   1.000
    Ga10    Ga   0.01798   0.80003   0.32339   1.000
    O11     O    0.24170   0.09603   0.27675   1.000
    Ga12    Ga   0.14488   0.34844   0.41042   1.000
    O13     O    0.10140   0.24339   0.27401   1.000
    O14     O    0.26450   0.40410   0.77676   1.000
    O15     O    0.40466   0.25662   0.77402   1.000
    O16     O    0.76637   0.90558   0.72299   1.000
    O17     O    0.90560   0.75728   0.72567   1.000
    O18     O    0.74162   0.59600   0.22322   1.000
    O19     O    0.60134   0.74339   0.22594   1.000
loop_
    _geom_bond_atom_site_label_1
    _geom_bond_atom_site_label_2
    _geom_bond_distance
    _geom_bond_site_symmetry_2
    _ccdc_geom_bond_type
    O18    O19       1.50917      .   S
    O13    O11       1.50918      .   S
    O16    O17       1.50912      .   S
    O15    O14       1.50912      .   S
    O13    Ga0       1.87237      .   S
    O15    Ga3       1.87248      .   S
    O17    Ga6       1.87235      .   S
    O19    Ga9       1.87254      .   S
