# CIF file generated by openbabel 2.4.90, see http://openbabel.sf.net
data_I
_chemical_name_common ''
_cell_length_a 9.0755
_cell_length_b 9.1395
_cell_length_c 18.989
_cell_angle_alpha 89.998
_cell_angle_beta 89.993
_cell_angle_gamma 70.226
_space_group_name_H-M_alt 'P 1'
_space_group_name_Hall 'P 1'
loop_
    _symmetry_equiv_pos_as_xyz
    x,y,z
loop_
    _atom_site_label
    _atom_site_type_symbol
    _atom_site_fract_x
    _atom_site_fract_y
    _atom_site_fract_z
    _atom_site_occupancy
    N0      N    0.35190   0.12113   0.08207   1.000
    N1      N    0.82417   0.99942   0.20028   1.000
    N2      N    0.15466   0.37922   0.58270   1.000
    N3      N    0.78167   0.00249   0.63199   1.000
    N4      N    0.28166   0.50213   0.86716   1.000
    N5      N    0.32436   0.49964   0.29999   1.000
    N6      N    0.72467   0.49786   0.13282   1.000
    N7      N    0.68193   0.50050   0.69999   1.000
    N8      N    0.65440   0.87880   0.91717   1.000
    N9      N    0.22431   0.99753   0.36794   1.000
    N10     N    0.18192   0.00054   0.79968   1.000
    N11     N    0.85194   0.62120   0.41717   1.000
    Zr12    Zr   0.01798   0.80003   0.32339   1.000
    O13     O    0.07739   0.86987   0.33841   1.000
    O14     O    0.96791   0.74666   0.35692   1.000
    O15     O    0.94867   0.86061   0.28501   1.000
    O16     O    0.11550   0.70619   0.31210   1.000
    Zr17    Zr   0.12666   0.18345   0.24473   1.000
    O18     O    0.98417   0.29014   0.19662   1.000
    O19     O    0.17964   0.17186   0.18046   1.000
    O20     O    0.02078   0.12266   0.21852   1.000
    O21     O    0.17776   0.10487   0.29291   1.000
    Zr22    Zr   0.88048   0.81725   0.75504   1.000
    O23     O    0.82908   0.89569   0.70692   1.000
    O24     O    0.82707   0.82844   0.81921   1.000
    O25     O    0.98586   0.87767   0.78134   1.000
    O26     O    0.02257   0.71021   0.80325   1.000
    Zr27    Zr   0.37954   0.31660   0.74475   1.000
    O28     O    0.48537   0.37739   0.71845   1.000
    O29     O    0.52214   0.21004   0.69641   1.000
    O30     O    0.32671   0.32830   0.68063   1.000
    O31     O    0.32834   0.39503   0.79264   1.000
    Zr32    Zr   0.98817   0.20008   0.67653   1.000
    O33     O    0.89070   0.29394   0.68786   1.000
    O34     O    0.05742   0.13944   0.71492   1.000
    O35     O    0.03841   0.25358   0.64298   1.000
    O36     O    0.92871   0.13022   0.66152   1.000
    Zr37    Zr   0.51815   0.29967   0.17722   1.000
    O38     O    0.46801   0.24641   0.14328   1.000
    O39     O    0.61551   0.20580   0.18847   1.000
    O40     O    0.44884   0.36044   0.21544   1.000
    O41     O    0.57765   0.36979   0.16245   1.000
    Zr42    Zr   0.62660   0.68347   0.25523   1.000
    O43     O    0.48398   0.79002   0.30357   1.000
    O44     O    0.67961   0.67191   0.31932   1.000
    O45     O    0.52085   0.62270   0.28154   1.000
    O46     O    0.67787   0.60502   0.20734   1.000
    Zr47    Zr   0.86141   0.65152   0.58955   1.000
    O48     O    0.79873   0.60426   0.62253   1.000
    O49     O    0.85509   0.63843   0.53482   1.000
    O50     O    0.96044   0.56984   0.59094   1.000
    O51     O    0.83304   0.76629   0.60013   1.000
    Zr52    Zr   0.36143   0.15166   0.91034   1.000
    O53     O    0.46040   0.06981   0.90894   1.000
    O54     O    0.29873   0.10440   0.87731   1.000
    O55     O    0.35509   0.13852   0.96448   1.000
    O56     O    0.33315   0.26632   0.89956   1.000
    Zr57    Zr   0.14488   0.34844   0.41042   1.000
    O58     O    0.04595   0.43030   0.40898   1.000
    O59     O    0.17306   0.23367   0.39980   1.000
    O60     O    0.15133   0.36167   0.46511   1.000
    O61     O    0.20756   0.39574   0.37744   1.000
    Zr62    Zr   0.48809   0.70028   0.82277   1.000
    O63     O    0.55742   0.63961   0.78454   1.000
    O64     O    0.53824   0.75354   0.85653   1.000
    O65     O    0.39067   0.79415   0.81152   1.000
    O66     O    0.42864   0.63016   0.83754   1.000
    Zr67    Zr   0.64484   0.84831   0.08958   1.000
    O68     O    0.65121   0.86143   0.03484   1.000
    O69     O    0.70750   0.89558   0.12262   1.000
    O70     O    0.54588   0.93015   0.09082   1.000
    O71     O    0.67314   0.73366   0.10039   1.000
loop_
    _geom_bond_atom_site_label_1
    _geom_bond_atom_site_label_2
    _geom_bond_distance
    _geom_bond_site_symmetry_2
    _ccdc_geom_bond_type
    Zr12   O13       1.00616      .   S
    N9     O13       2.12290      .   S
    Zr12   O14       0.99982  1_455   S
    N11    O14       2.13257      .   S
    Zr12   O15       0.99896  1_455   S
    N1     O15       2.12259      .   S
    Zr12   O16       1.02533      .   S
    N5     O16       2.18822      .   S
    Zr17   O18       1.61395  1_455   S
    N6     O18       2.75567      .   S
    Zr17   O19       1.30279      .   S
    N0     O19       2.37878      .   S
    Zr17   O20       1.35689      .   S
    N1     O20       2.43567  1_665   S
    Zr17   O21       1.15861      .   S
    N9     O21       1.70016  1_565   S
    Zr22   O23       1.15764      .   S
    N3     O23       1.69665  1_545   S
    Zr22   O24       1.30244      .   S
    N8     O24       2.37476      .   S
    Zr22   O25       1.35153      .   S
    N10    O25       2.42906  1_445   S
    Zr22   O26       1.61398  1_655   S
    N4     O26       2.75556      .   S
    Zr27   O28       1.35699      .   S
    N7     O28       2.43493      .   S
    Zr27   O29       1.61650      .   S
    N3     O29       2.76021      .   S
    Zr27   O30       1.29979      .   S
    N2     O30       2.37110      .   S
    Zr27   O31       1.15373      .   S
    N4     O31       1.69099      .   S
    Zr32   O33       1.02521      .   S
    N7     O33       2.18784      .   S
    Zr32   O34       0.99895  1_655   S
    N10    O34       2.12342      .   S
    Zr32   O35       1.00178  1_655   S
    N2     O35       2.13578      .   S
    Zr32   O36       1.00660      .   S
    N3     O36       2.12431      .   S
    Zr37   O38       1.00476      .   S
    N0     O38       2.14220      .   S
    Zr37   O39       1.02446      .   S
    N1     O39       2.18568  1_565   S
    Zr37   O40       0.99720      .   S
    N5     O40       2.12120      .   S
    Zr37   O41       1.00744      .   S
    N6     O41       2.12687      .   S
    Zr42   O43       1.61649      .   S
    N9     O43       2.76048      .   S
    Zr42   O44       1.29982      .   S
    N11    O44       2.37142      .   S
    Zr42   O45       1.35635      .   S
    N5     O45       2.43405      .   S
    Zr42   O46       1.15395      .   S
    N6     O46       1.69130      .   S
    Zr47   O48       1.03365      .   S
    N7     O48       2.20607      .   S
    Zr47   O49       1.04988      .   S
    N11    O49       2.24040      .   S
    Zr47   O50       0.95486      .   S
    N2     O50       2.02208  1_455   S
    Zr47   O51       1.01210      .   S
    N3     O51       2.13595  1_545   S
    Zr52   O53       0.95520      .   S
    N8     O53       2.02295  1_565   S
    Zr52   O54       1.03456      .   S
    N10    O54       2.20879      .   S
    Zr52   O55       1.03891      .   S
    N0     O55       2.23950  1_554   S
    Zr52   O56       1.01189      .   S
    N4     O56       2.13549      .   S
    Zr57   O58       0.95499      .   S
    N11    O58       2.02236  1_655   S
    Zr57   O59       1.01228      .   S
    N9     O59       2.13562  1_565   S
    Zr57   O60       1.04953      .   S
    N2     O60       2.23957      .   S
    Zr57   O61       1.03388      .   S
    N5     O61       2.20657      .   S
    Zr62   O63       0.99712      .   S
    N7     O63       2.12097      .   S
    Zr62   O64       1.00252      .   S
    N8     O64       2.13660      .   S
    Zr62   O65       1.02470      .   S
    N10    O65       2.18634  1_545   S
    Zr62   O66       1.00717      .   S
    N4     O66       2.12620      .   S
    Zr67   O68       1.05013      .   S
    N8     O68       2.24094  1_556   S
    Zr67   O69       1.03433      .   S
    N1     O69       2.20836      .   S
    Zr67   O70       0.95502      .   S
    N0     O70       2.02348  1_545   S
    Zr67   O71       1.01190      .   S
    N6     O71       2.13553      .   S
