# CIF file generated by openbabel 2.4.90, see http://openbabel.sf.net
data_I
_chemical_name_common ''
_cell_length_a 9.0755
_cell_length_b 9.1395
_cell_length_c 18.989
_cell_angle_alpha 89.998
_cell_angle_beta 89.993
_cell_angle_gamma 70.226
_space_group_name_H-M_alt 'P 1'
_space_group_name_Hall 'P 1'
loop_
    _symmetry_equiv_pos_as_xyz
    x,y,z
loop_
    _atom_site_label
    _atom_site_type_symbol
    _atom_site_fract_x
    _atom_site_fract_y
    _atom_site_fract_z
    _atom_site_occupancy
    Zr0     Zr   0.14488   0.34844   0.41042   1.000
    Zr1     Zr   0.03688   0.21092   0.18345   1.000
    Zr2     Zr   0.51815   0.29967   0.17722   1.000
    Zr3     Zr   0.36143   0.15166   0.91034   1.000
    Zr4     Zr   0.46947   0.28907   0.68349   1.000
    Zr5     Zr   0.98817   0.20008   0.67653   1.000
    Zr6     Zr   0.86141   0.65152   0.58955   1.000
    Zr7     Zr   0.96945   0.78890   0.81646   1.000
    Zr8     Zr   0.48809   0.70028   0.82277   1.000
    Zr9     Zr   0.64484   0.84831   0.08958   1.000
    Zr10    Zr   0.53683   0.71103   0.31653   1.000
    Zr11    Zr   0.01798   0.80003   0.32339   1.000
    Zr12    Zr   0.24170   0.09603   0.27675   1.000
    Zr13    Zr   0.10140   0.24339   0.27401   1.000
    Zr14    Zr   0.26450   0.40410   0.77676   1.000
    Zr15    Zr   0.40466   0.25662   0.77402   1.000
    Zr16    Zr   0.76637   0.90558   0.72299   1.000
    Zr17    Zr   0.90560   0.75728   0.72567   1.000
    Zr18    Zr   0.74162   0.59600   0.22322   1.000
    Zr19    Zr   0.60134   0.74339   0.22594   1.000
    O20     O    0.67148   0.66970   0.22458   1.000
    O21     O    0.17155   0.16971   0.27538   1.000
    O22     O    0.83599   0.83143   0.72433   1.000
    O23     O    0.33458   0.33036   0.77538   1.000
    O24     O    0.06914   0.22716   0.22873   1.000
    O25     O    0.43707   0.27285   0.72875   1.000
    O26     O    0.93753   0.77309   0.77106   1.000
    O27     O    0.56908   0.72721   0.27123   1.000
    N28     N    0.35190   0.12113   0.08207   1.000
    O29     O    0.41787   0.19315   0.10933   1.000
    O30     O    0.23263   0.16027   0.11620   1.000
    O31     O    0.44692   0.01199   0.09205   1.000
    O32     O    0.34876   0.12538   0.01862   1.000
    N33     N    0.82417   0.99942   0.20028   1.000
    O34     O    0.77015   0.94285   0.15566   1.000
    O35     O    0.71287   0.11193   0.19972   1.000
    O36     O    0.91490   0.06186   0.19231   1.000
    O37     O    0.87936   0.92118   0.24662   1.000
    N38     N    0.15466   0.37922   0.58270   1.000
    O39     O    0.15778   0.37491   0.51980   1.000
    O40     O    0.05947   0.48816   0.59234   1.000
    O41     O    0.08865   0.30708   0.60944   1.000
    O42     O    0.27388   0.34000   0.61651   1.000
    N43     N    0.78167   0.00249   0.63199   1.000
    O44     O    0.66473   0.10347   0.64806   1.000
    O45     O    0.77769   0.97412   0.65880   1.000
    O46     O    0.86925   0.06036   0.64652   1.000
    O47     O    0.80467   0.88107   0.61072   1.000
    N48     N    0.28166   0.50213   0.86716   1.000
    O49     O    0.27713   0.47346   0.84052   1.000
    O50     O    0.30486   0.38097   0.88877   1.000
    O51     O    0.16467   0.60316   0.85146   1.000
    O52     O    0.36919   0.56003   0.85230   1.000
    N53     N    0.32436   0.49964   0.29999   1.000
    O54     O    0.37952   0.42121   0.25366   1.000
    O55     O    0.41510   0.56193   0.30785   1.000
    O56     O    0.21303   0.61235   0.30080   1.000
    O57     O    0.27024   0.44304   0.34446   1.000
    N58     N    0.72467   0.49786   0.13282   1.000
    O59     O    0.63714   0.43991   0.14768   1.000
    O60     O    0.70143   0.61901   0.11119   1.000
    O61     O    0.72914   0.52657   0.15946   1.000
    O62     O    0.84168   0.39683   0.14851   1.000
    N63     N    0.68193   0.50050   0.69999   1.000
    O64     O    0.73605   0.55700   0.65550   1.000
    O65     O    0.79323   0.38779   0.69918   1.000
    O66     O    0.59119   0.43818   0.69216   1.000
    O67     O    0.62675   0.57894   0.74631   1.000
    N68     N    0.65440   0.87880   0.91717   1.000
    O69     O    0.55937   0.98797   0.90754   1.000
    O70     O    0.65757   0.87454   0.98010   1.000
    O71     O    0.58840   0.80679   0.89029   1.000
    O72     O    0.77366   0.83963   0.88337   1.000
    N73     N    0.22431   0.99753   0.36794   1.000
    O74     O    0.13681   0.93971   0.35342   1.000
    O75     O    0.20125   0.11891   0.38918   1.000
    O76     O    0.22886   0.02630   0.34109   1.000
    O77     O    0.34137   0.89656   0.35191   1.000
    N78     N    0.18192   0.00054   0.79968   1.000
    O79     O    0.23602   0.05714   0.84427   1.000
    O80     O    0.12667   0.07879   0.75330   1.000
    O81     O    0.09125   0.93808   0.80765   1.000
    O82     O    0.29326   0.88801   0.80028   1.000
    N83     N    0.85194   0.62120   0.41717   1.000
    O84     O    0.84876   0.62535   0.48009   1.000
    O85     O    0.94703   0.51216   0.40754   1.000
    O86     O    0.73263   0.66035   0.38341   1.000
    O87     O    0.91784   0.69328   0.39044   1.000
loop_
    _geom_bond_atom_site_label_1
    _geom_bond_atom_site_label_2
    _geom_bond_distance
    _geom_bond_site_symmetry_2
    _ccdc_geom_bond_type
    Zr18   O20       0.75458      .   S
    Zr19   O20       0.75458      .   S
    Zr13   O21       0.75459      .   S
    Zr12   O21       0.75459      .   S
    Zr16   O22       0.75456      .   S
    Zr17   O22       0.75456      .   S
    Zr15   O23       0.75456      .   S
    Zr14   O23       0.75456      .   S
    Zr13   O24       0.93618      .   S
    Zr1    O24       0.93618      .   S
    Zr15   O25       0.93624      .   S
    Zr4    O25       0.93624      .   S
    Zr17   O26       0.93617      .   S
    Zr7    O26       0.93617      .   S
    Zr19   O27       0.93627      .   S
    Zr10   O27       0.93627      .   S
    N28    O29       1.15170      .   S
    Zr2    O29       2.00952      .   S
    N28    O30       1.20721      .   S
    Zr1    O30       2.10813      .   S
    N28    O31       1.09208      .   S
    Zr9    O31       1.91005  1_565   S
    N28    O32       1.20555      .   S
    Zr3    O32       2.07782  1_556   S
    N33    O34       1.18203      .   S
    Zr9    O34       2.06867      .   S
    N33    O35       1.17256  1_565   S
    Zr2    O35       2.04891      .   S
    N33    O36       1.15954  1_565   S
    Zr1    O36       2.03229  1_455   S
    N33    O37       1.13773      .   S
    Zr11   O37       1.99791  1_455   S
    N38    O39       1.19497      .   S
    Zr0    O39       2.09906      .   S
    N38    O40       1.09051      .   S
    Zr6    O40       1.90973  1_655   S
    N38    O41       1.14828      .   S
    Zr5    O41       2.00357  1_655   S
    N38    O42       1.20381      .   S
    Zr4    O42       2.10404      .   S
    N43    O44       1.18678      .   S
    Zr4    O44       2.10622      .   S
    N43    O45       0.57806  1_545   S
    Zr16   O45       1.38997      .   S
    N43    O46       1.12795      .   S
    Zr5    O46       2.01320      .   S
    N43    O47       1.13199  1_545   S
    Zr6    O47       2.02420      .   S
    N48    O49       0.57751      .   S
    Zr14   O49       1.38939      .   S
    N48    O50       1.13188      .   S
    Zr3    O50       2.02378      .   S
    N48    O51       1.18553      .   S
    Zr7    O51       2.10419  1_655   S
    N48    O52       1.12918      .   S
    Zr8    O52       2.01435      .   S
    N53    O54       1.13822      .   S
    Zr2    O54       1.99439      .   S
    N53    O55       1.15838      .   S
    Zr10   O55       2.03058      .   S
    N53    O56       1.17391      .   S
    Zr11   O56       2.05066      .   S
    N53    O57       1.18060      .   S
    Zr0    O57       2.06775      .   S
    N58    O59       1.12953      .   S
    Zr2    O59       2.01488      .   S
    N58    O60       1.13190      .   S
    Zr9    O60       2.02380      .   S
    N58    O61       0.57751      .   S
    Zr18   O61       1.38936      .   S
    N58    O62       1.18559      .   S
    Zr1    O62       2.10454  1_455   S
    N63    O64       1.18034      .   S
    Zr6    O64       2.06729      .   S
    N63    O65       1.17371      .   S
    Zr5    O65       2.05042      .   S
    N63    O66       1.15843      .   S
    Zr4    O66       2.03064      .   S
    N63    O67       1.13811      .   S
    Zr8    O67       1.99423      .   S
    N68    O69       1.09111      .   S
    Zr3    O69       1.91041  1_545   S
    N68    O70       1.19567      .   S
    Zr9    O70       2.10026  1_554   S
    N68    O71       1.14864      .   S
    Zr8    O71       2.00503      .   S
    N68    O72       1.20385      .   S
    Zr7    O72       2.10444      .   S
    N73    O74       1.12698      .   S
    Zr11   O74       2.01233      .   S
    N73    O75       1.13134  1_565   S
    Zr0    O75       2.02457      .   S
    N73    O76       0.58157  1_565   S
    Zr12   O76       1.40088      .   S
    N73    O77       1.18721      .   S
    Zr10   O77       2.10665      .   S
    N78    O79       1.18218      .   S
    Zr3    O79       2.06912      .   S
    N78    O80       1.13844      .   S
    Zr5    O80       1.99789  1_655   S
    N78    O81       1.15911  1_545   S
    Zr7    O81       2.03186  1_655   S
    N78    O82       1.17292  1_545   S
    Zr8    O82       2.04940      .   S
    N83    O84       1.19539      .   S
    Zr6    O84       2.09977      .   S
    N83    O85       1.09061      .   S
    Zr0    O85       1.90997  1_455   S
    N83    O86       1.20397      .   S
    Zr10   O86       2.10445      .   S
    N83    O87       1.14711      .   S
    Zr11   O87       1.99963  1_455   S
