# CIF file generated by openbabel 2.4.90, see http://openbabel.sf.net
data_I
_chemical_name_common ''
_cell_length_a 21.933
_cell_length_b 21.947
_cell_length_c 15.978
_cell_angle_alpha 89.996
_cell_angle_beta 90
_cell_angle_gamma 89.962
_space_group_name_H-M_alt 'P 1'
_space_group_name_Hall 'P 1'
loop_
    _symmetry_equiv_pos_as_xyz
    x,y,z
loop_
    _atom_site_label
    _atom_site_type_symbol
    _atom_site_fract_x
    _atom_site_fract_y
    _atom_site_fract_z
    _atom_site_occupancy
    Fe0     Fe   0.00008   0.49999   0.99977   1.000
    Fe1     Fe   0.50002   0.99998   0.99974   1.000
    Fe2     Fe   0.50002   0.50001   0.99978   1.000
    Fe3     Fe   0.24987   0.99998   0.49970   1.000
    Fe4     Fe   0.24989   0.50006   0.49977   1.000
    Fe5     Fe   0.75020   0.00002   0.49970   1.000
    Fe6     Fe   0.75018   0.49994   0.49975   1.000
    Fe7     Fe   0.00011   0.24984   0.49972   1.000
    Fe8     Fe   0.00002   0.75017   0.49978   1.000
    Fe9     Fe   0.49999   0.24984   0.49973   1.000
    Fe10    Fe   0.50006   0.75015   0.49978   1.000
    Fe11    Fe   0.24988   0.24979   0.99979   1.000
    Fe12    Fe   0.24990   0.75013   0.99977   1.000
    Fe13    Fe   0.75017   0.24988   0.99976   1.000
    Fe14    Fe   0.75020   0.75019   0.99973   1.000
    Fe15    Fe   0.00006   0.99999   0.99976   1.000
