# CIF file generated by openbabel 2.4.90, see http://openbabel.sf.net
data_I
_chemical_name_common ''
_cell_length_a 23.83
_cell_length_b 23.831
_cell_length_c 15.27
_cell_angle_alpha 109.83
_cell_angle_beta 109.896
_cell_angle_gamma 97.193
_space_group_name_H-M_alt 'P 1'
_space_group_name_Hall 'P 1'
loop_
    _symmetry_equiv_pos_as_xyz
    x,y,z
loop_
    _atom_site_label
    _atom_site_type_symbol
    _atom_site_fract_x
    _atom_site_fract_y
    _atom_site_fract_z
    _atom_site_occupancy
    Cd0     Cd   0.39091   0.51043   0.78217   1.000
    Cd1     Cd   0.89080   0.01035   0.78212   1.000
    Cd2     Cd   0.89074   0.51030   0.78199   1.000
    Cd3     Cd   0.48991   0.10924   0.71805   1.000
    Cd4     Cd   0.49002   0.60912   0.71809   1.000
    Cd5     Cd   0.98982   0.10929   0.71796   1.000
    Cd6     Cd   0.98982   0.60911   0.71797   1.000
    Cd7     Cd   0.10922   0.48968   0.21800   1.000
    Cd8     Cd   0.10916   0.98963   0.21789   1.000
    Cd9     Cd   0.60905   0.48955   0.21784   1.000
    Cd10    Cd   0.60904   0.98965   0.21791   1.000
    Cd11    Cd   0.01014   0.39087   0.28204   1.000
    Cd12    Cd   0.01014   0.89069   0.28205   1.000
    Cd13    Cd   0.50994   0.39085   0.28192   1.000
    Cd14    Cd   0.51005   0.89074   0.28196   1.000
    H15     H    0.40142   0.13137   0.81594   1.000
    H16     H    0.40147   0.63144   0.81601   1.000
    H17     H    0.90123   0.13137   0.81580   1.000
    H18     H    0.90122   0.63134   0.81584   1.000
    Cd19    Cd   0.39092   0.01033   0.78210   1.000
    H20     H    0.36885   0.09892   0.68427   1.000
    H21     H    0.36900   0.59915   0.68435   1.000
    H22     H    0.86874   0.09891   0.68420   1.000
    H23     H    0.86876   0.59897   0.68421   1.000
    H24     H    0.09874   0.36864   0.18417   1.000
    H25     H    0.09873   0.86861   0.18421   1.000
    H26     H    0.59848   0.36853   0.18400   1.000
    H27     H    0.59853   0.86860   0.18400   1.000
    C28     C    0.90911   0.96181   0.57894   1.000
    H29     H    0.13120   0.40101   0.31580   1.000
    H30     H    0.13121   0.90107   0.31581   1.000
    H31     H    0.63096   0.40082   0.31560   1.000
    H32     H    0.63111   0.90106   0.31574   1.000
    C33     C    0.03832   0.09094   0.92112   1.000
    C34     C    0.03826   0.59100   0.92120   1.000
    C35     C    0.53850   0.09098   0.92120   1.000
    C36     C    0.53867   0.59109   0.92125   1.000
    C37     C    0.41669   0.13932   0.97900   1.000
    C38     C    0.41663   0.63916   0.97957   1.000
    C39     C    0.91636   0.13931   0.97936   1.000
    C40     C    0.91628   0.63912   0.97931   1.000
    C41     C    0.40905   0.46182   0.57890   1.000
    C42     C    0.40901   0.96178   0.57888   1.000
    C43     C    0.90909   0.46174   0.57884   1.000
    O44     O    0.40463   0.58055   0.94985   1.000
    O45     O    0.90424   0.08069   0.94960   1.000
    O46     O    0.90416   0.58050   0.94956   1.000
    O47     O    0.46247   0.99924   0.63060   1.000
    O48     O    0.46259   0.49908   0.63072   1.000
    O49     O    0.96255   0.99933   0.63050   1.000
    O50     O    0.96263   0.49905   0.63054   1.000
    O51     O    0.36797   0.45087   0.61151   1.000
    C52     C    0.36090   0.08376   0.52075   1.000
    C53     C    0.36098   0.58370   0.52067   1.000
    C54     C    0.86078   0.08375   0.52060   1.000
    C55     C    0.86078   0.58356   0.52050   1.000
    C56     C    0.46129   0.40889   0.07876   1.000
    C57     C    0.46146   0.90900   0.07881   1.000
    C58     C    0.96171   0.40899   0.07877   1.000
    C59     C    0.96163   0.90903   0.07889   1.000
    C60     C    0.08368   0.36086   0.02070   1.000
    C61     C    0.08360   0.86067   0.02065   1.000
    C62     C    0.58333   0.36081   0.02044   1.000
    C63     C    0.58327   0.86066   0.02052   1.000
    C64     C    0.09084   0.03817   0.42107   1.000
    C65     C    0.09087   0.53824   0.42110   1.000
    C66     C    0.59096   0.03820   0.42113   1.000
    C67     C    0.59091   0.53815   0.42105   1.000
    C68     C    0.13917   0.41641   0.47944   1.000
    C69     C    0.13917   0.91623   0.47937   1.000
    C70     C    0.63898   0.41627   0.47934   1.000
    C71     C    0.63906   0.91622   0.47926   1.000
    O72     O    0.50107   0.03753   0.86936   1.000
    O73     O    0.50103   0.53775   0.86940   1.000
    O74     O    0.00000   0.03751   0.86930   1.000
    O75     O    0.00000   0.53756   0.86943   1.000
    O76     O    0.04951   0.13195   0.88856   1.000
    O77     O    0.04942   0.63205   0.88873   1.000
    O78     O    0.54974   0.13201   0.88870   1.000
    O79     O    0.55017   0.63205   0.88876   1.000
    O80     O    0.40926   0.16960   0.92389   1.000
    O81     O    0.40914   0.66941   0.92392   1.000
    O82     O    0.90888   0.16958   0.92374   1.000
    O83     O    0.90880   0.66937   0.92367   1.000
    O84     O    0.40465   0.08070   0.94975   1.000
    O85     O    0.36797   0.95064   0.61140   1.000
    O86     O    0.86805   0.45074   0.61142   1.000
    O87     O    0.86817   0.95063   0.61161   1.000
    O88     O    0.33067   0.09127   0.57639   1.000
    O89     O    0.33081   0.59158   0.57640   1.000
    O90     O    0.83052   0.09122   0.57623   1.000
    O91     O    0.83056   0.59132   0.57621   1.000
    O92     O    0.41954   0.09591   0.55051   1.000
    O93     O    0.41960   0.59544   0.55030   1.000
    O94     O    0.91943   0.09594   0.55044   1.000
    O95     O    0.91941   0.59542   0.55020   1.000
    O96     O    0.99918   0.46243   0.13058   1.000
    O97     O    0.99912   0.96247   0.13063   1.000
    O98     O    0.49893   0.46223   0.13061   1.000
    O99     O    0.49889   0.96244   0.13065   1.000
    O100    O    0.44979   0.36793   0.11125   1.000
    O101    O    0.45021   0.86796   0.11131   1.000
    O102    O    0.95055   0.36794   0.11128   1.000
    O103    O    0.95045   0.86802   0.11145   1.000
    O104    O    0.09117   0.33061   0.07634   1.000
    O105    O    0.09108   0.83040   0.07627   1.000
    O106    O    0.59081   0.33056   0.07609   1.000
    O107    O    0.59069   0.83038   0.07612   1.000
    O108    O    0.09580   0.41948   0.05045   1.000
    O109    O    0.09571   0.91929   0.05041   1.000
    O110    O    0.59533   0.41943   0.05016   1.000
    O111    O    0.59531   0.91927   0.05027   1.000
    O112    O    0.03733   0.50093   0.36947   1.000
    O113    O    0.03741   0.00000   0.36951   1.000
    O114    O    0.53736   0.50089   0.36930   1.000
    O115    O    0.53749   0.00000   0.36941   1.000
    O116    O    0.13178   0.04935   0.38839   1.000
    O117    O    0.13191   0.54924   0.38850   1.000
    O118    O    0.63199   0.04934   0.38861   1.000
    O119    O    0.63199   0.54909   0.38850   1.000
    O120    O    0.16939   0.40865   0.42300   1.000
    O121    O    0.16943   0.90875   0.42378   1.000
    O122    O    0.66915   0.40840   0.42360   1.000
    O123    O    0.66929   0.90871   0.42362   1.000
    O124    O    0.08054   0.40456   0.44973   1.000
    O125    O    0.08053   0.90404   0.44957   1.000
    O126    O    0.58037   0.40454   0.44971   1.000
    O127    O    0.58042   0.90407   0.44950   1.000
    O128    O    0.40114   0.09906   0.75009   1.000
    O129    O    0.40126   0.59924   0.75013   1.000
    O130    O    0.90105   0.09908   0.75003   1.000
    O131    O    0.90104   0.59911   0.75001   1.000
    O132    O    0.09892   0.40087   0.25000   1.000
    O133    O    0.09891   0.90089   0.24998   1.000
    O134    O    0.59869   0.40074   0.24980   1.000
    O135    O    0.59882   0.90092   0.24992   1.000
    Ts136   Ts   0.39245   0.48251   0.79833   1.000
    Ts137   Ts   0.35387   0.50222   0.76508   1.000
    Ts138   Ts   0.89233   0.98245   0.79832   1.000
    Ts139   Ts   0.85376   0.00212   0.76500   1.000
    Ts140   Ts   0.89231   0.48241   0.79820   1.000
    Ts141   Ts   0.85371   0.50207   0.76489   1.000
    Ts142   Ts   0.49809   0.14626   0.73508   1.000
    Ts143   Ts   0.51776   0.10766   0.70179   1.000
    Ts144   Ts   0.49818   0.64615   0.73511   1.000
    Ts145   Ts   0.51785   0.60757   0.70181   1.000
    Ts146   Ts   0.99804   0.14632   0.73507   1.000
    Ts147   Ts   0.01771   0.10773   0.70174   1.000
    Ts148   Ts   0.99802   0.64615   0.73505   1.000
    Ts149   Ts   0.01771   0.60758   0.70179   1.000
    Ts150   Ts   0.10765   0.51757   0.20177   1.000
    Ts151   Ts   0.14625   0.49791   0.23508   1.000
    Ts152   Ts   0.10762   0.01753   0.20169   1.000
    Ts153   Ts   0.14620   0.99786   0.23501   1.000
    Ts154   Ts   0.60751   0.51746   0.20168   1.000
    Ts155   Ts   0.64609   0.49776   0.23493   1.000
    Ts156   Ts   0.60751   0.01755   0.20174   1.000
    Ts157   Ts   0.64609   0.99785   0.23499   1.000
    Ts158   Ts   0.00194   0.35384   0.26496   1.000
    Ts159   Ts   0.98225   0.39240   0.29822   1.000
    Ts160   Ts   0.00192   0.85366   0.26494   1.000
    Ts161   Ts   0.98225   0.89224   0.29827   1.000
    Ts162   Ts   0.50178   0.35383   0.26490   1.000
    Ts163   Ts   0.48210   0.39241   0.29820   1.000
    Ts164   Ts   0.50187   0.85372   0.26493   1.000
    Ts165   Ts   0.48220   0.89231   0.29822   1.000
    Ts166   Ts   0.39245   0.98243   0.79827   1.000
    Ts167   Ts   0.35387   0.00212   0.76502   1.000
    Og168   Og   0.90331   0.95028   0.54127   1.000
    Og169   Og   0.04983   0.09671   0.95879   1.000
    Og170   Og   0.04976   0.59676   0.95888   1.000
    Og171   Og   0.54997   0.09675   0.95888   1.000
    Og172   Og   0.55011   0.59683   0.95892   1.000
    Og173   Og   0.42584   0.15219   0.01718   1.000
    Og174   Og   0.42579   0.65205   0.01758   1.000
    Og175   Og   0.92557   0.15218   0.01738   1.000
    Og176   Og   0.92549   0.65200   0.01733   1.000
    Og177   Og   0.40325   0.45031   0.54125   1.000
    Og178   Og   0.40322   0.95027   0.54122   1.000
    Og179   Og   0.90329   0.45023   0.54116   1.000
    Og180   Og   0.34800   0.07453   0.48272   1.000
    Og181   Og   0.34807   0.57448   0.48264   1.000
    Og182   Og   0.84789   0.07451   0.48257   1.000
    Og183   Og   0.84789   0.57433   0.48249   1.000
    Og184   Og   0.44985   0.40315   0.04109   1.000
    Og185   Og   0.44999   0.90323   0.04113   1.000
    Og186   Og   0.95020   0.40323   0.04110   1.000
    Og187   Og   0.95013   0.90327   0.04122   1.000
    Og188   Og   0.07448   0.34799   0.98268   1.000
    Og189   Og   0.07440   0.84780   0.98263   1.000
    Og190   Og   0.57416   0.34793   0.98243   1.000
    Og191   Og   0.57411   0.84779   0.98250   1.000
    Og192   Og   0.09665   0.04970   0.45874   1.000
    Og193   Og   0.09667   0.54975   0.45880   1.000
    Og194   Og   0.59674   0.04971   0.45879   1.000
    Og195   Og   0.59671   0.54966   0.45872   1.000
    Og196   Og   0.15207   0.42564   0.51747   1.000
    Og197   Og   0.15206   0.92547   0.51740   1.000
    Og198   Og   0.65189   0.42549   0.51737   1.000
    Og199   Og   0.65196   0.92546   0.51729   1.000
loop_
    _geom_bond_atom_site_label_1
    _geom_bond_atom_site_label_2
    _geom_bond_distance
    _geom_bond_site_symmetry_2
    _ccdc_geom_bond_type
    C62    O110      1.27294      .   S
    C62    O106      1.27208      .   S
    C63    O111      1.27291      .   S
    C63    O107      1.27214      .   S
    C61    O109      1.27293      .   S
    C61    O105      1.27215      .   S
    C60    O108      1.27291      .   S
    C60    O104      1.27201      .   S
    O110   Cd9       2.41783      .   S
    O111   Cd10      2.41919      .   S
    O109   Cd8       2.41915      .   S
    O108   Cd7       2.41909      .   S
    C56    O100      1.27608      .   S
    C56    O98       1.26302      .   S
    C58    O102      1.27605      .   S
    C58    O96       1.26329      .   S
    C57    O101      1.27615      .   S
    C57    O99       1.26309      .   S
    C59    O103      1.27597      .   S
    C59    O97       1.26330      .   S
    O100   Cd13      2.33245      .   S
    O102   Cd11      2.33087  1_655   S
    O101   Cd14      2.33147      .   S
    O103   Cd12      2.33070  1_655   S
    O96    Cd7       2.38401  1_655   S
    O98    Cd9       2.38511      .   S
    O97    Cd8       2.38377  1_655   S
    O99    Cd10      2.38603      .   S
    H26    O134      1.03488      .   S
    H27    O135      1.03657      .   S
    H24    O132      1.03577      .   S
    H25    O133      1.03562      .   S
    Cd9    O119      2.33037      .   S
    Cd8    O116      2.33093  1_565   S
    Cd10   O118      2.33155  1_565   S
    Cd7    O117      2.32978      .   S
    O134   H31       1.03589      .   S
    O135   H32       1.03586      .   S
    O133   H30       1.03569      .   S
    O132   H29       1.03558      .   S
    Cd13   O114      2.38487      .   S
    Cd13   O126      2.42015      .   S
    Cd14   O115      2.36867  1_565   S
    Cd14   O127      2.41933      .   S
    Cd11   O112      2.38567      .   S
    Cd11   O124      2.41864      .   S
    Cd12   O113      2.37004  1_565   S
    Cd12   O125      2.41908      .   S
    O114   C67       1.26298      .   S
    O115   C66       1.26986      .   S
    O112   C65       1.26306      .   S
    O113   C64       1.26909      .   S
    O116   C64       1.27597      .   S
    O117   C65       1.27628      .   S
    O119   C67       1.27613      .   S
    O118   C66       1.27602      .   S
    O120   C68       1.28190      .   S
    O122   C70       1.27212      .   S
    O123   C71       1.27212      .   S
    O121   C69       1.27217      .   S
    O127   C71       1.27289      .   S
    O125   C69       1.27289      .   S
    O126   C70       1.27287      .   S
    O124   C68       1.27295      .   S
    C55    O95       1.27298      .   S
    C55    O91       1.27288      .   S
    C54    O94       1.27286      .   S
    C54    O90       1.27269      .   S
    C53    O93       1.27287      .   S
    C53    O89       1.27201      .   S
    C52    O92       1.27287      .   S
    C52    O88       1.27210      .   S
    O95    Cd6       2.41964      .   S
    O93    Cd4       2.42011      .   S
    O94    Cd5       2.41911      .   S
    O92    Cd3       2.41934      .   S
    C43    O86       1.27608      .   S
    C43    O50       1.26309      .   S
    C42    O85       1.27600      .   S
    C42    O47       1.26324      .   S
    C41    O51       1.27676      .   S
    C41    O48       1.26301      .   S
    C28    O87       1.27587      .   S
    C28    O49       1.26327      .   S
    O85    Cd19      2.33154  1_565   S
    O86    Cd2       2.33069      .   S
    O51    Cd0       2.33045      .   S
    O87    Cd1       2.33101  1_565   S
    O49    Cd5       2.38367  1_565   S
    O50    Cd6       2.38567      .   S
    O47    Cd3       2.38408  1_565   S
    O48    Cd4       2.38483      .   S
    H22    O130      1.03571      .   S
    H23    O131      1.03556      .   S
    H20    O128      1.03584      .   S
    H21    O129      1.03566      .   S
    Cd5    O76       2.33075  1_655   S
    Cd6    O77       2.33090  1_655   S
    Cd3    O78       2.33145      .   S
    Cd4    O79       2.33242      .   S
    O131   H18       1.03577      .   S
    O130   H17       1.03561      .   S
    O128   H15       1.03581      .   S
    O129   H16       1.03579      .   S
    Cd2    O75       2.36765  1_655   S
    Cd2    O46       2.41931      .   S
    Cd19   O72       2.38601      .   S
    Cd19   O84       2.41927      .   S
    Cd1    O74       2.36617  1_655   S
    Cd1    O45       2.41914      .   S
    Cd0    O73       2.38514      .   S
    Cd0    O44       2.41786      .   S
    O74    C33       1.27085      .   S
    O72    C35       1.26311      .   S
    O73    C36       1.26302      .   S
    O75    C34       1.27029      .   S
    O76    C33       1.27596      .   S
    O78    C35       1.27611      .   S
    O77    C34       1.27562      .   S
    O79    C36       1.27610      .   S
    O83    C40       1.27203      .   S
    O82    C39       1.27215      .   S
    O80    C37       1.26602      .   S
    O81    C38       1.27205      .   S
    O46    C40       1.27291      .   S
    O45    C39       1.27292      .   S
    O84    C37       1.27364      .   S
    O44    C38       1.27292      .   S
    O128   Cd19      2.32869      .   S
    O128   Cd3       2.33011      .   S
    O129   Cd0       2.33098      .   S
    O129   Cd4       2.32953      .   S
    O130   Cd1       2.32958      .   S
    O130   Cd5       2.33048      .   S
    O131   Cd2       2.33035      .   S
    O131   Cd6       2.32992      .   S
    O132   Cd7       2.33054      .   S
    O132   Cd11      2.32997      .   S
    O133   Cd8       2.32958      .   S
    O133   Cd12      2.33050      .   S
    O134   Cd9       2.33036      .   S
    O134   Cd13      2.33010      .   S
    O135   Cd10      2.32868      .   S
    O135   Cd14      2.33007      .   S
    Cd0    Ts136     0.78490      .   S
    Cd0    Ts137     0.80672      .   S
    Cd1    Ts138     0.78485  1_545   S
    Cd1    Ts139     0.80662      .   S
    Cd2    Ts140     0.78486      .   S
    Cd2    Ts141     0.80640      .   S
    Cd3    Ts142     0.80666      .   S
    Cd3    Ts143     0.78470      .   S
    Cd4    Ts144     0.80680      .   S
    Cd4    Ts145     0.78436      .   S
    Cd5    Ts146     0.80664      .   S
    Cd5    Ts147     0.78509  1_655   S
    Cd6    Ts148     0.80690      .   S
    Cd6    Ts149     0.78492  1_655   S
    Cd7    Ts150     0.78507      .   S
    Cd7    Ts151     0.80642      .   S
    Cd8    Ts152     0.78484  1_565   S
    Cd8    Ts153     0.80662      .   S
    Cd9    Ts154     0.78492      .   S
    Cd9    Ts155     0.80672      .   S
    Cd10   Ts156     0.78462  1_565   S
    Cd10   Ts157     0.80695      .   S
    Cd11   Ts158     0.80690      .   S
    Cd11   Ts159     0.78493  1_455   S
    Cd12   Ts160     0.80665      .   S
    Cd12   Ts161     0.78510  1_455   S
    Cd13   Ts162     0.80680      .   S
    Cd13   Ts163     0.78438      .   S
    Cd14   Ts164     0.80666      .   S
    Cd14   Ts165     0.78469      .   S
    Cd19   Ts166     0.78462  1_545   S
    Cd19   Ts167     0.80695      .   S
    C28    Og168     0.50461      .   S
    C33    Og169     0.50453      .   S
    C34    Og170     0.50465      .   S
    C35    Og171     0.50452      .   S
    C36    Og172     0.50448      .   S
    C37    Og173     0.50691  1_556   S
    C38    Og174     0.50488  1_556   S
    C39    Og175     0.50492  1_556   S
    C40    Og176     0.50495  1_556   S
    C41    Og177     0.50429      .   S
    C42    Og178     0.50454      .   S
    C43    Og179     0.50461      .   S
    C52    Og180     0.50499      .   S
    C53    Og181     0.50500      .   S
    C54    Og182     0.50499      .   S
    C55    Og183     0.50473      .   S
    C56    Og184     0.50448      .   S
    C57    Og185     0.50452      .   S
    C58    Og186     0.50448      .   S
    C59    Og187     0.50453      .   S
    C60    Og188     0.50495  1_554   S
    C61    Og189     0.50492  1_554   S
    C62    Og190     0.50488  1_554   S
    C63    Og191     0.50492  1_554   S
    C64    Og192     0.50460      .   S
    C65    Og193     0.50492      .   S
    C66    Og194     0.50454      .   S
    C67    Og195     0.50456      .   S
    C68    Og196     0.50501      .   S
    C69    Og197     0.50499      .   S
    C70    Og198     0.50500      .   S
    C71    Og199     0.50499      .   S
