# CIF file generated by openbabel 2.4.90, see http://openbabel.sf.net
data_I
_chemical_name_common ''
_cell_length_a 23.83
_cell_length_b 23.831
_cell_length_c 15.27
_cell_angle_alpha 109.83
_cell_angle_beta 109.896
_cell_angle_gamma 97.193
_space_group_name_H-M_alt 'P 1'
_space_group_name_Hall 'P 1'
loop_
    _symmetry_equiv_pos_as_xyz
    x,y,z
loop_
    _atom_site_label
    _atom_site_type_symbol
    _atom_site_fract_x
    _atom_site_fract_y
    _atom_site_fract_z
    _atom_site_occupancy
    C0      C    0.90911   0.96181   0.57894   1.000
    C1      C    0.03832   0.09094   0.92112   1.000
    C2      C    0.03826   0.59100   0.92120   1.000
    C3      C    0.53850   0.09098   0.92120   1.000
    C4      C    0.53867   0.59109   0.92125   1.000
    C5      C    0.41669   0.13932   0.97900   1.000
    C6      C    0.41663   0.63916   0.97957   1.000
    C7      C    0.91636   0.13931   0.97936   1.000
    C8      C    0.91628   0.63912   0.97931   1.000
    C9      C    0.40905   0.46182   0.57890   1.000
    C10     C    0.40901   0.96178   0.57888   1.000
    C11     C    0.90909   0.46174   0.57884   1.000
    C12     C    0.36090   0.08376   0.52075   1.000
    C13     C    0.36098   0.58370   0.52067   1.000
    C14     C    0.86078   0.08375   0.52060   1.000
    C15     C    0.86078   0.58356   0.52050   1.000
    C16     C    0.46129   0.40889   0.07876   1.000
    C17     C    0.46146   0.90900   0.07881   1.000
    C18     C    0.96171   0.40899   0.07877   1.000
    C19     C    0.96163   0.90903   0.07889   1.000
    C20     C    0.08368   0.36086   0.02070   1.000
    C21     C    0.08360   0.86067   0.02065   1.000
    C22     C    0.58333   0.36081   0.02044   1.000
    C23     C    0.58327   0.86066   0.02052   1.000
    C24     C    0.09084   0.03817   0.42107   1.000
    C25     C    0.09087   0.53824   0.42110   1.000
    C26     C    0.59096   0.03820   0.42113   1.000
    C27     C    0.59091   0.53815   0.42105   1.000
    C28     C    0.13917   0.41641   0.47944   1.000
    C29     C    0.13917   0.91623   0.47937   1.000
    C30     C    0.63898   0.41627   0.47934   1.000
    C31     C    0.63906   0.91622   0.47926   1.000
