# CIF file generated by openbabel 2.4.90, see http://openbabel.sf.net
data_I
_chemical_name_common ''
_cell_length_a 23.83
_cell_length_b 23.831
_cell_length_c 15.27
_cell_angle_alpha 109.83
_cell_angle_beta 109.896
_cell_angle_gamma 97.193
_space_group_name_H-M_alt 'P 1'
_space_group_name_Hall 'P 1'
loop_
    _symmetry_equiv_pos_as_xyz
    x,y,z
loop_
    _atom_site_label
    _atom_site_type_symbol
    _atom_site_fract_x
    _atom_site_fract_y
    _atom_site_fract_z
    _atom_site_occupancy
    Zr0     Zr   0.39092   0.01033   0.78210   1.000
    Zr1     Zr   0.39091   0.51043   0.78217   1.000
    Zr2     Zr   0.89080   0.01035   0.78212   1.000
    Zr3     Zr   0.89074   0.51030   0.78199   1.000
    Zr4     Zr   0.48991   0.10924   0.71805   1.000
    Zr5     Zr   0.49002   0.60912   0.71809   1.000
    Zr6     Zr   0.98982   0.10929   0.71796   1.000
    Zr7     Zr   0.98982   0.60911   0.71797   1.000
    Zr8     Zr   0.10922   0.48968   0.21800   1.000
    Zr9     Zr   0.10916   0.98963   0.21789   1.000
    Zr10    Zr   0.60905   0.48955   0.21784   1.000
    Zr11    Zr   0.60904   0.98965   0.21791   1.000
    Zr12    Zr   0.01014   0.39087   0.28204   1.000
    Zr13    Zr   0.01014   0.89069   0.28205   1.000
    Zr14    Zr   0.50994   0.39085   0.28192   1.000
    Zr15    Zr   0.51005   0.89074   0.28196   1.000
    Zr16    Zr   0.40142   0.13137   0.81594   1.000
    Zr17    Zr   0.40147   0.63144   0.81601   1.000
    Zr18    Zr   0.90123   0.13137   0.81580   1.000
    Zr19    Zr   0.90122   0.63134   0.81584   1.000
    Zr20    Zr   0.36885   0.09892   0.68427   1.000
    Zr21    Zr   0.36900   0.59915   0.68435   1.000
    Zr22    Zr   0.86874   0.09891   0.68420   1.000
    Zr23    Zr   0.86876   0.59897   0.68421   1.000
    Zr24    Zr   0.09874   0.36864   0.18417   1.000
    Zr25    Zr   0.09873   0.86861   0.18421   1.000
    Zr26    Zr   0.59848   0.36853   0.18400   1.000
    Zr27    Zr   0.59853   0.86860   0.18400   1.000
    Zr28    Zr   0.13120   0.40101   0.31580   1.000
    Zr29    Zr   0.13121   0.90107   0.31581   1.000
    Zr30    Zr   0.63096   0.40082   0.31560   1.000
    Zr31    Zr   0.63111   0.90106   0.31574   1.000
    Zr32    Zr   0.03832   0.09094   0.92112   1.000
    Zr33    Zr   0.03826   0.59100   0.92120   1.000
    Zr34    Zr   0.53850   0.09098   0.92120   1.000
    Zr35    Zr   0.53867   0.59109   0.92125   1.000
    Zr36    Zr   0.41669   0.13932   0.97900   1.000
    Zr37    Zr   0.41663   0.63916   0.97957   1.000
    Zr38    Zr   0.91636   0.13931   0.97936   1.000
    Zr39    Zr   0.91628   0.63912   0.97931   1.000
    Zr40    Zr   0.40905   0.46182   0.57890   1.000
    Zr41    Zr   0.40901   0.96178   0.57888   1.000
    Zr42    Zr   0.90909   0.46174   0.57884   1.000
    Zr43    Zr   0.90911   0.96181   0.57894   1.000
    Zr44    Zr   0.36090   0.08376   0.52075   1.000
    Zr45    Zr   0.36098   0.58370   0.52067   1.000
    Zr46    Zr   0.86078   0.08375   0.52060   1.000
    Zr47    Zr   0.86078   0.58356   0.52050   1.000
    Zr48    Zr   0.46129   0.40889   0.07876   1.000
    Zr49    Zr   0.46146   0.90900   0.07881   1.000
    Zr50    Zr   0.96171   0.40899   0.07877   1.000
    Zr51    Zr   0.96163   0.90903   0.07889   1.000
    Zr52    Zr   0.08368   0.36086   0.02070   1.000
    Zr53    Zr   0.08360   0.86067   0.02065   1.000
    Zr54    Zr   0.58333   0.36081   0.02044   1.000
    Zr55    Zr   0.58327   0.86066   0.02052   1.000
    Zr56    Zr   0.09084   0.03817   0.42107   1.000
    Zr57    Zr   0.09087   0.53824   0.42110   1.000
    Zr58    Zr   0.59096   0.03820   0.42113   1.000
    Zr59    Zr   0.59091   0.53815   0.42105   1.000
    Zr60    Zr   0.13917   0.41641   0.47944   1.000
    Zr61    Zr   0.13917   0.91623   0.47937   1.000
    Zr62    Zr   0.63898   0.41627   0.47934   1.000
    Zr63    Zr   0.63906   0.91622   0.47926   1.000
    Zr64    Zr   0.50107   0.03753   0.86936   1.000
    Zr65    Zr   0.50103   0.53775   0.86940   1.000
    Zr66    Zr   0.00000   0.03751   0.86930   1.000
    Zr67    Zr   0.00000   0.53756   0.86943   1.000
    Zr68    Zr   0.04951   0.13195   0.88856   1.000
    Zr69    Zr   0.04942   0.63205   0.88873   1.000
    Zr70    Zr   0.54974   0.13201   0.88870   1.000
    Zr71    Zr   0.55017   0.63205   0.88876   1.000
    Zr72    Zr   0.40926   0.16960   0.92389   1.000
    Zr73    Zr   0.40914   0.66941   0.92392   1.000
    Zr74    Zr   0.90888   0.16958   0.92374   1.000
    Zr75    Zr   0.90880   0.66937   0.92367   1.000
    Zr76    Zr   0.40465   0.08070   0.94975   1.000
    Zr77    Zr   0.40463   0.58055   0.94985   1.000
    Zr78    Zr   0.90424   0.08069   0.94960   1.000
    Zr79    Zr   0.90416   0.58050   0.94956   1.000
    Zr80    Zr   0.46247   0.99924   0.63060   1.000
    Zr81    Zr   0.46259   0.49908   0.63072   1.000
    Zr82    Zr   0.96255   0.99933   0.63050   1.000
    Zr83    Zr   0.96263   0.49905   0.63054   1.000
    Zr84    Zr   0.36797   0.45087   0.61151   1.000
    Zr85    Zr   0.36797   0.95064   0.61140   1.000
    Zr86    Zr   0.86805   0.45074   0.61142   1.000
    Zr87    Zr   0.86817   0.95063   0.61161   1.000
    Zr88    Zr   0.33067   0.09127   0.57639   1.000
    Zr89    Zr   0.33081   0.59158   0.57640   1.000
    Zr90    Zr   0.83052   0.09122   0.57623   1.000
    Zr91    Zr   0.83056   0.59132   0.57621   1.000
    Zr92    Zr   0.41954   0.09591   0.55051   1.000
    Zr93    Zr   0.41960   0.59544   0.55030   1.000
    Zr94    Zr   0.91943   0.09594   0.55044   1.000
    Zr95    Zr   0.91941   0.59542   0.55020   1.000
    Zr96    Zr   0.99918   0.46243   0.13058   1.000
    Zr97    Zr   0.99912   0.96247   0.13063   1.000
    Zr98    Zr   0.49893   0.46223   0.13061   1.000
    Zr99    Zr   0.49889   0.96244   0.13065   1.000
    Zr100   Zr   0.44979   0.36793   0.11125   1.000
    Zr101   Zr   0.45021   0.86796   0.11131   1.000
    Zr102   Zr   0.95055   0.36794   0.11128   1.000
    Zr103   Zr   0.95045   0.86802   0.11145   1.000
    Zr104   Zr   0.09117   0.33061   0.07634   1.000
    Zr105   Zr   0.09108   0.83040   0.07627   1.000
    Zr106   Zr   0.59081   0.33056   0.07609   1.000
    Zr107   Zr   0.59069   0.83038   0.07612   1.000
    Zr108   Zr   0.09580   0.41948   0.05045   1.000
    Zr109   Zr   0.09571   0.91929   0.05041   1.000
    Zr110   Zr   0.59533   0.41943   0.05016   1.000
    Zr111   Zr   0.59531   0.91927   0.05027   1.000
    Zr112   Zr   0.03733   0.50093   0.36947   1.000
    Zr113   Zr   0.03741   0.00000   0.36951   1.000
    Zr114   Zr   0.53736   0.50089   0.36930   1.000
    Zr115   Zr   0.53749   0.00000   0.36941   1.000
    Zr116   Zr   0.13178   0.04935   0.38839   1.000
    Zr117   Zr   0.13191   0.54924   0.38850   1.000
    Zr118   Zr   0.63199   0.04934   0.38861   1.000
    Zr119   Zr   0.63199   0.54909   0.38850   1.000
    Zr120   Zr   0.16939   0.40865   0.42300   1.000
    Zr121   Zr   0.16943   0.90875   0.42378   1.000
    Zr122   Zr   0.66915   0.40840   0.42360   1.000
    Zr123   Zr   0.66929   0.90871   0.42362   1.000
    Zr124   Zr   0.08054   0.40456   0.44973   1.000
    Zr125   Zr   0.08053   0.90404   0.44957   1.000
    Zr126   Zr   0.58037   0.40454   0.44971   1.000
    Zr127   Zr   0.58042   0.90407   0.44950   1.000
    Zr128   Zr   0.40114   0.09906   0.75009   1.000
    Zr129   Zr   0.40126   0.59924   0.75013   1.000
    Zr130   Zr   0.90105   0.09908   0.75003   1.000
    Zr131   Zr   0.90104   0.59911   0.75001   1.000
    Zr132   Zr   0.09892   0.40087   0.25000   1.000
    Zr133   Zr   0.09891   0.90089   0.24998   1.000
    Zr134   Zr   0.59869   0.40074   0.24980   1.000
    Zr135   Zr   0.59882   0.90092   0.24992   1.000
    O136    O    0.58933   0.39012   0.03530   1.000
    O137    O    0.58707   0.34569   0.04827   1.000
    O138    O    0.58929   0.88997   0.03540   1.000
    O139    O    0.58698   0.84552   0.04832   1.000
    O140    O    0.08966   0.88998   0.03553   1.000
    O141    O    0.08734   0.84554   0.04846   1.000
    O142    O    0.08974   0.39017   0.03558   1.000
    O143    O    0.08743   0.34574   0.04852   1.000
    O144    O    0.60219   0.45449   0.13400   1.000
    O145    O    0.60217   0.95446   0.13409   1.000
    O146    O    0.10244   0.95446   0.13415   1.000
    O147    O    0.10251   0.45458   0.13423   1.000
    O148    O    0.45554   0.38841   0.09501   1.000
    O149    O    0.48011   0.43556   0.10469   1.000
    O150    O    0.95613   0.38846   0.09503   1.000
    O151    O    0.98044   0.43571   0.10468   1.000
    O152    O    0.45583   0.88848   0.09506   1.000
    O153    O    0.48017   0.93572   0.10473   1.000
    O154    O    0.95604   0.88853   0.09517   1.000
    O155    O    0.98038   0.93575   0.10476   1.000
    O156    O    0.47986   0.37939   0.19659   1.000
    O157    O    0.98035   0.37940   0.19666   1.000
    O158    O    0.48013   0.87935   0.19664   1.000
    O159    O    0.98030   0.87935   0.19675   1.000
    O160    O    0.05420   0.47605   0.17429   1.000
    O161    O    0.55399   0.47589   0.17423   1.000
    O162    O    0.05414   0.97605   0.17426   1.000
    O163    O    0.55396   0.97605   0.17428   1.000
    O164    O    0.59859   0.38463   0.21690   1.000
    O165    O    0.59867   0.88476   0.21696   1.000
    O166    O    0.09883   0.38476   0.21709   1.000
    O167    O    0.09882   0.88475   0.21710   1.000
    O168    O    0.62052   0.51932   0.30317   1.000
    O169    O    0.12047   0.01949   0.30314   1.000
    O170    O    0.62052   0.01950   0.30326   1.000
    O171    O    0.12057   0.51946   0.30325   1.000
    O172    O    0.61483   0.40078   0.28270   1.000
    O173    O    0.61496   0.90099   0.28283   1.000
    O174    O    0.11506   0.90098   0.28290   1.000
    O175    O    0.11506   0.40094   0.28290   1.000
    O176    O    0.52365   0.44587   0.32561   1.000
    O177    O    0.54515   0.39770   0.36582   1.000
    O178    O    0.52377   0.94537   0.32569   1.000
    O179    O    0.54524   0.89741   0.36573   1.000
    O180    O    0.02374   0.44590   0.32576   1.000
    O181    O    0.04534   0.39772   0.36589   1.000
    O182    O    0.02377   0.94534   0.32578   1.000
    O183    O    0.04533   0.89736   0.36581   1.000
    O184    O    0.56413   0.51952   0.39518   1.000
    O185    O    0.56423   0.01910   0.39527   1.000
    O186    O    0.06410   0.51958   0.39529   1.000
    O187    O    0.06412   0.01909   0.39529   1.000
    O188    O    0.11131   0.04376   0.40473   1.000
    O189    O    0.11139   0.54374   0.40480   1.000
    O190    O    0.61145   0.54362   0.40478   1.000
    O191    O    0.61147   0.04377   0.40487   1.000
    O192    O    0.15428   0.41253   0.45122   1.000
    O193    O    0.65406   0.41234   0.45147   1.000
    O194    O    0.65417   0.91247   0.45144   1.000
    O195    O    0.15430   0.91249   0.45158   1.000
    O196    O    0.60974   0.91015   0.46438   1.000
    O197    O    0.10985   0.91013   0.46447   1.000
    O198    O    0.60967   0.41040   0.46453   1.000
    O199    O    0.10986   0.41049   0.46459   1.000
    O200    O    0.89010   0.58949   0.53535   1.000
    O201    O    0.84567   0.58744   0.54836   1.000
    O202    O    0.89011   0.08985   0.53552   1.000
    O203    O    0.84565   0.08749   0.54842   1.000
    O204    O    0.39029   0.58957   0.53549   1.000
    O205    O    0.34590   0.58764   0.54854   1.000
    O206    O    0.39022   0.08984   0.53563   1.000
    O207    O    0.34579   0.08752   0.54857   1.000
    O208    O    0.95462   0.60227   0.63409   1.000
    O209    O    0.45481   0.60228   0.63420   1.000
    O210    O    0.95462   0.10262   0.63420   1.000
    O211    O    0.45472   0.10257   0.63428   1.000
    O212    O    0.88857   0.45624   0.59513   1.000
    O213    O    0.93586   0.48040   0.60469   1.000
    O214    O    0.38849   0.95621   0.59514   1.000
    O215    O    0.43574   0.98051   0.60474   1.000
    O216    O    0.38851   0.45635   0.59521   1.000
    O217    O    0.43582   0.48045   0.60481   1.000
    O218    O    0.88864   0.95622   0.59528   1.000
    O219    O    0.93583   0.98057   0.60472   1.000
    O220    O    0.37945   0.98048   0.69675   1.000
    O221    O    0.87939   0.48052   0.69671   1.000
    O222    O    0.37944   0.48065   0.69684   1.000
    O223    O    0.87949   0.98049   0.69687   1.000
    O224    O    0.97618   0.05431   0.67423   1.000
    O225    O    0.97622   0.55408   0.67426   1.000
    O226    O    0.47619   0.05424   0.67433   1.000
    O227    O    0.47631   0.55410   0.67441   1.000
    O228    O    0.88490   0.09900   0.71712   1.000
    O229    O    0.88490   0.59904   0.71711   1.000
    O230    O    0.38499   0.09899   0.71718   1.000
    O231    O    0.38513   0.59919   0.71724   1.000
    O232    O    0.01966   0.12062   0.80326   1.000
    O233    O    0.01962   0.62058   0.80335   1.000
    O234    O    0.51982   0.12063   0.80338   1.000
    O235    O    0.52009   0.62059   0.80343   1.000
    O236    O    0.90113   0.61522   0.78293   1.000
    O237    O    0.90114   0.11523   0.78292   1.000
    O238    O    0.40128   0.11522   0.78302   1.000
    O239    O    0.40136   0.61534   0.78307   1.000
    O240    O    0.94537   0.52393   0.82571   1.000
    O241    O    0.89745   0.54540   0.86578   1.000
    O242    O    0.44600   0.02393   0.82573   1.000
    O243    O    0.39779   0.04551   0.86593   1.000
    O244    O    0.94540   0.02393   0.82571   1.000
    O245    O    0.89752   0.04552   0.86586   1.000
    O246    O    0.44597   0.52409   0.82579   1.000
    O247    O    0.39777   0.54549   0.86601   1.000
    O248    O    0.01916   0.06422   0.89521   1.000
    O249    O    0.51979   0.06426   0.89528   1.000
    O250    O    0.51985   0.56442   0.89533   1.000
    O251    O    0.01913   0.56428   0.89532   1.000
    O252    O    0.04392   0.11145   0.90484   1.000
    O253    O    0.54412   0.11150   0.90495   1.000
    O254    O    0.04384   0.61152   0.90497   1.000
    O255    O    0.54442   0.61157   0.90501   1.000
    O256    O    0.91254   0.65424   0.95149   1.000
    O257    O    0.91262   0.15444   0.95155   1.000
    O258    O    0.41297   0.15446   0.95145   1.000
    O259    O    0.41289   0.65429   0.95175   1.000
    O260    O    0.91022   0.60981   0.96444   1.000
    O261    O    0.91030   0.11000   0.96448   1.000
    O262    O    0.41067   0.11001   0.96438   1.000
    O263    O    0.41063   0.60986   0.96471   1.000
    O264    O    0.39603   0.05469   0.76610   1.000
    O265    O    0.44552   0.10415   0.73407   1.000
    O266    O    0.39609   0.55483   0.76615   1.000
    O267    O    0.44564   0.60418   0.73411   1.000
    O268    O    0.89592   0.05471   0.76608   1.000
    O269    O    0.94543   0.10419   0.73400   1.000
    O270    O    0.89589   0.55471   0.76600   1.000
    O271    O    0.94543   0.60411   0.73399   1.000
    O272    O    0.10407   0.44527   0.23400   1.000
    O273    O    0.05453   0.39587   0.26602   1.000
    O274    O    0.10404   0.94526   0.23394   1.000
    O275    O    0.05453   0.89579   0.26602   1.000
    O276    O    0.60387   0.44514   0.23382   1.000
    O277    O    0.55432   0.39580   0.26586   1.000
    O278    O    0.60393   0.94529   0.23392   1.000
    O279    O    0.55444   0.89583   0.26594   1.000
    N280    N    0.21029   0.97550   0.71473   1.000
    O281    O    0.18440   0.95280   0.62558   1.000
    O282    O    0.27282   0.98676   0.73561   1.000
    N283    N    0.47546   0.21033   0.21482   1.000
    O284    O    0.45294   0.18447   0.12555   1.000
    O285    O    0.48658   0.27282   0.23561   1.000
    N286    N    0.39448   0.86468   0.84465   1.000
    O287    O    0.41937   0.88251   0.93347   1.000
    O288    O    0.39385   0.91658   0.82550   1.000
    N289    N    0.78967   0.02439   0.28527   1.000
    O290    O    0.72714   0.01317   0.26440   1.000
    O291    O    0.81556   0.04714   0.37441   1.000
    N292    N    0.13541   0.10551   0.65520   1.000
    O293    O    0.11748   0.08048   0.56639   1.000
    O294    O    0.08353   0.10623   0.67442   1.000
    N295    N    0.10548   0.13527   0.15525   1.000
    O296    O    0.08053   0.11743   0.06644   1.000
    O297    O    0.10617   0.08337   0.17442   1.000
    N298    N    0.36452   0.39457   0.34485   1.000
    O299    O    0.41635   0.39387   0.32559   1.000
    O300    O    0.38243   0.41956   0.43364   1.000
    N301    N    0.39445   0.36471   0.84463   1.000
    O302    O    0.41929   0.38249   0.93344   1.000
    O303    O    0.39383   0.41663   0.82552   1.000
    N304    N    0.63544   0.60541   0.65516   1.000
    O305    O    0.58361   0.60610   0.67442   1.000
    O306    O    0.61753   0.58042   0.56636   1.000
    N307    N    0.21031   0.47559   0.71480   1.000
    O308    O    0.18441   0.45292   0.62565   1.000
    O309    O    0.27283   0.48685   0.73567   1.000
    N310    N    0.78965   0.52439   0.28521   1.000
    O311    O    0.81554   0.54705   0.37435   1.000
    O312    O    0.72713   0.51313   0.26434   1.000
    N313    N    0.86453   0.39448   0.34470   1.000
    O314    O    0.91641   0.39383   0.32550   1.000
    O315    O    0.88246   0.41948   0.43351   1.000
    N316    N    0.60548   0.13530   0.15536   1.000
    O317    O    0.58059   0.11747   0.06654   1.000
    O318    O    0.60611   0.08340   0.17451   1.000
    N319    N    0.60551   0.63527   0.15538   1.000
    O320    O    0.60613   0.58335   0.17449   1.000
    O321    O    0.58067   0.61748   0.06657   1.000
    N322    N    0.28977   0.52453   0.28532   1.000
    O323    O    0.22727   0.51328   0.26447   1.000
    O324    O    0.31569   0.54720   0.37448   1.000
    N325    N    0.02448   0.28983   0.78536   1.000
    O326    O    0.04717   0.31569   0.87451   1.000
    O327    O    0.01332   0.22733   0.76449   1.000
    N328    N    0.02443   0.78968   0.78530   1.000
    O329    O    0.01328   0.72717   0.76444   1.000
    O330    O    0.04711   0.81552   0.87446   1.000
    N331    N    0.47549   0.71024   0.21487   1.000
    O332    O    0.45293   0.68436   0.12573   1.000
    O333    O    0.48663   0.77272   0.23564   1.000
    N334    N    0.52447   0.28974   0.78513   1.000
    O335    O    0.51333   0.22725   0.76436   1.000
    O336    O    0.54703   0.31562   0.87428   1.000
    N337    N    0.52450   0.78965   0.78519   1.000
    O338    O    0.54702   0.81550   0.87434   1.000
    O339    O    0.51338   0.72716   0.76440   1.000
    N340    N    0.13543   0.60550   0.65530   1.000
    O341    O    0.08355   0.60615   0.67450   1.000
    O342    O    0.11750   0.58050   0.56648   1.000
    N343    N    0.10544   0.63530   0.15524   1.000
    O344    O    0.08047   0.61747   0.06648   1.000
    O345    O    0.10615   0.58341   0.17445   1.000
    N346    N    0.97543   0.21030   0.21471   1.000
    O347    O    0.98663   0.27281   0.23556   1.000
    O348    O    0.95280   0.18446   0.12555   1.000
    N349    N    0.28976   0.02442   0.28539   1.000
    O350    O    0.22724   0.01320   0.26448   1.000
    O351    O    0.31565   0.04717   0.37455   1.000
    N352    N    0.97537   0.71015   0.21465   1.000
    O353    O    0.95273   0.68429   0.12550   1.000
    O354    O    0.98659   0.77265   0.23552   1.000
    N355    N    0.36455   0.89452   0.34479   1.000
    O356    O    0.38244   0.91952   0.43359   1.000
    O357    O    0.41641   0.89381   0.32557   1.000
    N358    N    0.71019   0.47545   0.71467   1.000
    O359    O    0.68427   0.45278   0.62553   1.000
    O360    O    0.77269   0.48670   0.73551   1.000
    N361    N    0.63541   0.10546   0.65521   1.000
    O362    O    0.58355   0.10617   0.67444   1.000
    O363    O    0.61752   0.08046   0.56642   1.000
    N364    N    0.89453   0.36468   0.84466   1.000
    O365    O    0.89381   0.41657   0.82548   1.000
    O366    O    0.91949   0.38251   0.93347   1.000
    N367    N    0.86455   0.89447   0.34480   1.000
    O368    O    0.91643   0.89375   0.32559   1.000
    O369    O    0.88248   0.91950   0.43362   1.000
    N370    N    0.71020   0.97546   0.71462   1.000
    O371    O    0.68431   0.95277   0.62546   1.000
    O372    O    0.77272   0.98673   0.73553   1.000
    N373    N    0.89448   0.86471   0.84476   1.000
    O374    O    0.91943   0.88255   0.93357   1.000
    O375    O    0.89379   0.91661   0.82559   1.000
loop_
    _geom_bond_atom_site_label_1
    _geom_bond_atom_site_label_2
    _geom_bond_distance
    _geom_bond_site_symmetry_2
    _ccdc_geom_bond_type
    Zr54   O136      0.63647      .   S
    Zr110  O136      0.63647      .   S
    Zr54   O137      0.63604      .   S
    Zr106  O137      0.63604      .   S
    Zr55   O138      0.63645      .   S
    Zr111  O138      0.63645      .   S
    Zr55   O139      0.63607      .   S
    Zr107  O139      0.63607      .   S
    Zr53   O140      0.63646      .   S
    Zr109  O140      0.63646      .   S
    Zr53   O141      0.63607      .   S
    Zr105  O141      0.63607      .   S
    Zr52   O142      0.63646      .   S
    Zr108  O142      0.63646      .   S
    Zr52   O143      0.63600      .   S
    Zr104  O143      0.63600      .   S
    Zr110  O144      1.20892      .   S
    Zr10   O144      1.20892      .   S
    Zr111  O145      1.20960      .   S
    Zr11   O145      1.20960      .   S
    Zr109  O146      1.20958      .   S
    Zr9    O146      1.20958      .   S
    Zr108  O147      1.20955      .   S
    Zr8    O147      1.20955      .   S
    Zr48   O148      0.63804      .   S
    Zr100  O148      0.63804      .   S
    Zr48   O149      0.63151      .   S
    Zr98   O149      0.63151      .   S
    Zr50   O150      0.63802      .   S
    Zr102  O150      0.63802      .   S
    Zr50   O151      0.63164      .   S
    Zr96   O151      0.63164      .   S
    Zr49   O152      0.63807      .   S
    Zr101  O152      0.63807      .   S
    Zr49   O153      0.63155      .   S
    Zr99   O153      0.63155      .   S
    Zr51   O154      0.63798      .   S
    Zr103  O154      0.63798      .   S
    Zr51   O155      0.63165      .   S
    Zr97   O155      0.63165      .   S
    Zr100  O156      1.16622      .   S
    Zr14   O156      1.16622      .   S
    Zr102  O157      1.16544      .   S
    Zr12   O157      1.16544  1_455   S
    Zr101  O158      1.16573      .   S
    Zr15   O158      1.16573      .   S
    Zr103  O159      1.16535      .   S
    Zr13   O159      1.16535  1_455   S
    Zr96   O160      1.19200  1_655   S
    Zr8    O160      1.19200      .   S
    Zr98   O161      1.19255      .   S
    Zr10   O161      1.19255      .   S
    Zr97   O162      1.19189  1_655   S
    Zr9    O162      1.19189      .   S
    Zr99   O163      1.19301      .   S
    Zr11   O163      1.19301      .   S
    Zr26   O164      0.51744      .   S
    Zr134  O164      0.51744      .   S
    Zr27   O165      0.51829      .   S
    Zr135  O165      0.51829      .   S
    Zr24   O166      0.51789      .   S
    Zr132  O166      0.51789      .   S
    Zr25   O167      0.51781      .   S
    Zr133  O167      0.51781      .   S
    Zr10   O168      1.16518      .   S
    Zr119  O168      1.16518      .   S
    Zr9    O169      1.16546  1_565   S
    Zr116  O169      1.16546      .   S
    Zr11   O170      1.16577  1_565   S
    Zr118  O170      1.16577      .   S
    Zr8    O171      1.16489      .   S
    Zr117  O171      1.16489      .   S
    Zr134  O172      0.51794      .   S
    Zr30   O172      0.51794      .   S
    Zr135  O173      0.51793      .   S
    Zr31   O173      0.51793      .   S
    Zr133  O174      0.51784      .   S
    Zr29   O174      0.51784      .   S
    Zr132  O175      0.51779      .   S
    Zr28   O175      0.51779      .   S
    Zr14   O176      1.19244      .   S
    Zr114  O176      1.19244      .   S
    Zr14   O177      1.21008      .   S
    Zr126  O177      1.21008      .   S
    Zr15   O178      1.18434      .   S
    Zr115  O178      1.18434  1_545   S
    Zr15   O179      1.20966      .   S
    Zr127  O179      1.20966      .   S
    Zr12   O180      1.19284      .   S
    Zr112  O180      1.19284      .   S
    Zr12   O181      1.20932      .   S
    Zr124  O181      1.20932      .   S
    Zr13   O182      1.18502      .   S
    Zr113  O182      1.18502  1_545   S
    Zr13   O183      1.20954      .   S
    Zr125  O183      1.20954      .   S
    Zr114  O184      0.63149      .   S
    Zr59   O184      0.63149      .   S
    Zr115  O185      0.63493      .   S
    Zr58   O185      0.63493      .   S
    Zr112  O186      0.63153      .   S
    Zr57   O186      0.63153      .   S
    Zr113  O187      0.63455      .   S
    Zr56   O187      0.63455      .   S
    Zr116  O188      0.63799      .   S
    Zr56   O188      0.63799      .   S
    Zr117  O189      0.63814      .   S
    Zr57   O189      0.63814      .   S
    Zr119  O190      0.63806      .   S
    Zr59   O190      0.63806      .   S
    Zr118  O191      0.63801      .   S
    Zr58   O191      0.63801      .   S
    Zr120  O192      0.64095      .   S
    Zr60   O192      0.64095      .   S
    Zr122  O193      0.63606      .   S
    Zr62   O193      0.63606      .   S
    Zr123  O194      0.63606      .   S
    Zr63   O194      0.63606      .   S
    Zr121  O195      0.63609      .   S
    Zr61   O195      0.63609      .   S
    Zr127  O196      0.63644      .   S
    Zr63   O196      0.63644      .   S
    Zr125  O197      0.63645      .   S
    Zr61   O197      0.63645      .   S
    Zr126  O198      0.63644      .   S
    Zr62   O198      0.63644      .   S
    Zr124  O199      0.63647      .   S
    Zr60   O199      0.63647      .   S
    Zr47   O200      0.63649      .   S
    Zr95   O200      0.63649      .   S
    Zr47   O201      0.63644      .   S
    Zr91   O201      0.63644      .   S
    Zr46   O202      0.63643      .   S
    Zr94   O202      0.63643      .   S
    Zr46   O203      0.63634      .   S
    Zr90   O203      0.63634      .   S
    Zr45   O204      0.63643      .   S
    Zr93   O204      0.63643      .   S
    Zr45   O205      0.63601      .   S
    Zr89   O205      0.63601      .   S
    Zr44   O206      0.63643      .   S
    Zr92   O206      0.63643      .   S
    Zr44   O207      0.63605      .   S
    Zr88   O207      0.63605      .   S
    Zr95   O208      1.20982      .   S
    Zr7    O208      1.20982      .   S
    Zr93   O209      1.21006      .   S
    Zr5    O209      1.21006      .   S
    Zr94   O210      1.20956      .   S
    Zr6    O210      1.20956      .   S
    Zr92   O211      1.20967      .   S
    Zr4    O211      1.20967      .   S
    Zr42   O212      0.63804      .   S
    Zr86   O212      0.63804      .   S
    Zr42   O213      0.63155      .   S
    Zr83   O213      0.63155      .   S
    Zr41   O214      0.63800      .   S
    Zr85   O214      0.63800      .   S
    Zr41   O215      0.63162      .   S
    Zr80   O215      0.63162      .   S
    Zr40   O216      0.63838      .   S
    Zr84   O216      0.63838      .   S
    Zr40   O217      0.63150      .   S
    Zr81   O217      0.63150      .   S
    Zr43   O218      0.63794      .   S
    Zr87   O218      0.63794      .   S
    Zr43   O219      0.63163      .   S
    Zr82   O219      0.63163      .   S
    Zr85   O220      1.16577      .   S
    Zr0    O220      1.16577  1_545   S
    Zr86   O221      1.16535      .   S
    Zr3    O221      1.16535      .   S
    Zr84   O222      1.16523      .   S
    Zr1    O222      1.16523      .   S
    Zr87   O223      1.16551      .   S
    Zr2    O223      1.16551  1_545   S
    Zr82   O224      1.19183  1_565   S
    Zr6    O224      1.19183      .   S
    Zr83   O225      1.19283      .   S
    Zr7    O225      1.19283      .   S
    Zr80   O226      1.19204  1_565   S
    Zr4    O226      1.19204      .   S
    Zr81   O227      1.19242      .   S
    Zr5    O227      1.19242      .   S
    Zr22   O228      0.51785      .   S
    Zr130  O228      0.51785      .   S
    Zr23   O229      0.51778      .   S
    Zr131  O229      0.51778      .   S
    Zr20   O230      0.51792      .   S
    Zr128  O230      0.51792      .   S
    Zr21   O231      0.51783      .   S
    Zr129  O231      0.51783      .   S
    Zr6    O232      1.16538  1_655   S
    Zr68   O232      1.16538      .   S
    Zr7    O233      1.16545  1_655   S
    Zr69   O233      1.16545      .   S
    Zr4    O234      1.16572      .   S
    Zr70   O234      1.16572      .   S
    Zr5    O235      1.16621      .   S
    Zr71   O235      1.16621      .   S
    Zr131  O236      0.51789      .   S
    Zr19   O236      0.51789      .   S
    Zr130  O237      0.51781      .   S
    Zr18   O237      0.51781      .   S
    Zr128  O238      0.51790      .   S
    Zr16   O238      0.51790      .   S
    Zr129  O239      0.51790      .   S
    Zr17   O239      0.51790      .   S
    Zr3    O240      1.18383      .   S
    Zr67   O240      1.18383  1_455   S
    Zr3    O241      1.20965      .   S
    Zr79   O241      1.20965      .   S
    Zr0    O242      1.19301      .   S
    Zr64   O242      1.19301      .   S
    Zr0    O243      1.20963      .   S
    Zr76   O243      1.20963      .   S
    Zr2    O244      1.18308      .   S
    Zr66   O244      1.18308  1_455   S
    Zr2    O245      1.20957      .   S
    Zr78   O245      1.20957      .   S
    Zr1    O246      1.19257      .   S
    Zr65   O246      1.19257      .   S
    Zr1    O247      1.20893      .   S
    Zr77   O247      1.20893      .   S
    Zr66   O248      0.63542      .   S
    Zr32   O248      0.63542      .   S
    Zr64   O249      0.63155      .   S
    Zr34   O249      0.63155      .   S
    Zr65   O250      0.63151      .   S
    Zr35   O250      0.63151      .   S
    Zr67   O251      0.63515      .   S
    Zr33   O251      0.63515      .   S
    Zr68   O252      0.63798      .   S
    Zr32   O252      0.63798      .   S
    Zr70   O253      0.63805      .   S
    Zr34   O253      0.63805      .   S
    Zr69   O254      0.63781      .   S
    Zr33   O254      0.63781      .   S
    Zr71   O255      0.63805      .   S
    Zr35   O255      0.63805      .   S
    Zr75   O256      0.63601      .   S
    Zr39   O256      0.63601      .   S
    Zr74   O257      0.63607      .   S
    Zr38   O257      0.63607      .   S
    Zr72   O258      0.63301      .   S
    Zr36   O258      0.63301      .   S
    Zr73   O259      0.63603      .   S
    Zr37   O259      0.63603      .   S
    Zr79   O260      0.63646      .   S
    Zr39   O260      0.63646      .   S
    Zr78   O261      0.63646      .   S
    Zr38   O261      0.63646      .   S
    Zr76   O262      0.63682      .   S
    Zr36   O262      0.63682      .   S
    Zr77   O263      0.63646      .   S
    Zr37   O263      0.63646      .   S
    Zr128  O264      1.16435      .   S
    Zr0    O264      1.16435      .   S
    Zr128  O265      1.16506      .   S
    Zr4    O265      1.16506      .   S
    Zr129  O266      1.16549      .   S
    Zr1    O266      1.16549      .   S
    Zr129  O267      1.16476      .   S
    Zr5    O267      1.16476      .   S
    Zr130  O268      1.16479      .   S
    Zr2    O268      1.16479      .   S
    Zr130  O269      1.16524      .   S
    Zr6    O269      1.16524      .   S
    Zr131  O270      1.16517      .   S
    Zr3    O270      1.16517      .   S
    Zr131  O271      1.16496      .   S
    Zr7    O271      1.16496      .   S
    Zr132  O272      1.16527      .   S
    Zr8    O272      1.16527      .   S
    Zr132  O273      1.16498      .   S
    Zr12   O273      1.16498      .   S
    Zr133  O274      1.16479      .   S
    Zr9    O274      1.16479      .   S
    Zr133  O275      1.16525      .   S
    Zr13   O275      1.16525      .   S
    Zr134  O276      1.16518      .   S
    Zr10   O276      1.16518      .   S
    Zr134  O277      1.16505      .   S
    Zr14   O277      1.16505      .   S
    Zr135  O278      1.16434      .   S
    Zr11   O278      1.16434      .   S
    Zr135  O279      1.16503      .   S
    Zr15   O279      1.16503      .   S
    N280   O281      1.17124      .   S
    Zr61   O281      1.92677      .   S
    N280   O282      1.38292      .   S
    Zr0    O282      2.59112  1_545   S
    N283   O284      1.17271      .   S
    Zr36   O284      1.93118  1_556   S
    N283   O285      1.38285      .   S
    Zr14   O285      2.59082      .   S
    N286   O287      1.17055      .   S
    Zr49   O287      1.92507  1_554   S
    N286   O288      1.36473      .   S
    Zr0    O288      2.53918  1_545   S
    N289   O290      1.38296      .   S
    Zr11   O290      2.59113  1_565   S
    N289   O291      1.17101      .   S
    Zr46   O291      1.92653      .   S
    N292   O293      1.17064      .   S
    Zr56   O293      1.92527      .   S
    N292   O294      1.36511      .   S
    Zr6    O294      2.54025  1_655   S
    N295   O296      1.17049      .   S
    Zr32   O296      1.92501  1_556   S
    N295   O297      1.36489      .   S
    Zr9    O297      2.53965  1_565   S
    N298   O299      1.36434      .   S
    Zr14   O299      2.53837      .   S
    N298   O300      1.17034      .   S
    Zr40   O300      1.92451      .   S
    N301   O302      1.17042      .   S
    Zr48   O302      1.92486  1_554   S
    N301   O303      1.36500      .   S
    Zr1    O303      2.53985      .   S
    N304   O305      1.36438      .   S
    Zr5    O305      2.53839      .   S
    N304   O306      1.17054      .   S
    Zr59   O306      1.92509      .   S
    N307   O308      1.17125      .   S
    Zr60   O308      1.92682      .   S
    N307   O309      1.38276      .   S
    Zr1    O309      2.59059      .   S
    N310   O311      1.17104      .   S
    Zr47   O311      1.92618      .   S
    N310   O312      1.38275      .   S
    Zr10   O312      2.59059      .   S
    N313   O314      1.36500      .   S
    Zr12   O314      2.53993  1_455   S
    N313   O315      1.17064      .   S
    Zr42   O315      1.92528      .   S
    N316   O317      1.17054      .   S
    Zr34   O317      1.92505  1_556   S
    N316   O318      1.36474      .   S
    Zr11   O318      2.53919  1_565   S
    N319   O320      1.36500      .   S
    Zr10   O320      2.53989      .   S
    N319   O321      1.17045      .   S
    Zr35   O321      1.92490  1_556   S
    N322   O323      1.38246      .   S
    Zr8    O323      2.58983      .   S
    N322   O324      1.17127      .   S
    Zr45   O324      1.92680      .   S
    N325   O326      1.17124      .   S
    Zr52   O326      1.92669  1_554   S
    N325   O327      1.38267      .   S
    Zr6    O327      2.59035  1_655   S
    N328   O329      1.38291      .   S
    Zr7    O329      2.59100  1_655   S
    N328   O330      1.17128      .   S
    Zr53   O330      1.92670  1_554   S
    N331   O332      1.17110      .   S
    Zr37   O332      1.92646  1_556   S
    N331   O333      1.38269      .   S
    Zr15   O333      2.59043      .   S
    N334   O335      1.38269      .   S
    Zr4    O335      2.59043      .   S
    N334   O336      1.17115      .   S
    Zr54   O336      1.92650  1_554   S
    N337   O338      1.17119      .   S
    Zr55   O338      1.92662  1_554   S
    N337   O339      1.38285      .   S
    Zr5    O339      2.59082      .   S
    N340   O341      1.36503      .   S
    Zr7    O341      2.53994  1_655   S
    N340   O342      1.17081      .   S
    Zr57   O342      1.92592      .   S
    N343   O344      1.16990      .   S
    Zr33   O344      1.92460  1_556   S
    N343   O345      1.36508      .   S
    Zr8    O345      2.54018      .   S
    N346   O347      1.38287      .   S
    Zr12   O347      2.59096  1_455   S
    N346   O348      1.17125      .   S
    Zr38   O348      1.92668  1_556   S
    N349   O350      1.38265      .   S
    Zr9    O350      2.59031  1_565   S
    N349   O351      1.17126      .   S
    Zr44   O351      1.92677      .   S
    N352   O353      1.17120      .   S
    Zr39   O353      1.92667  1_556   S
    N352   O354      1.38263      .   S
    Zr13   O354      2.59033  1_455   S
    N355   O356      1.17050      .   S
    Zr41   O356      1.92503      .   S
    N355   O357      1.36469      .   S
    Zr15   O357      2.53919      .   S
    N358   O359      1.17117      .   S
    Zr62   O359      1.92670      .   S
    N358   O360      1.38251      .   S
    Zr3    O360      2.58983      .   S
    N361   O362      1.36473      .   S
    Zr4    O362      2.53925      .   S
    N361   O363      1.17047      .   S
    Zr58   O363      1.92499      .   S
    N364   O365      1.36489      .   S
    Zr3    O365      2.53968      .   S
    N364   O366      1.17045      .   S
    Zr50   O366      1.92488  1_554   S
    N367   O368      1.36508      .   S
    Zr13   O368      2.54025  1_455   S
    N367   O369      1.17071      .   S
    Zr43   O369      1.92534      .   S
    N370   O371      1.17127      .   S
    Zr63   O371      1.92679      .   S
    N370   O372      1.38262      .   S
    Zr2    O372      2.59029  1_545   S
    N373   O374      1.17055      .   S
    Zr51   O374      1.92506  1_554   S
    N373   O375      1.36487      .   S
    Zr2    O375      2.53963  1_545   S
