# CIF file generated by openbabel 2.4.90, see http://openbabel.sf.net
data_I
_chemical_name_common ''
_cell_length_a 14.609
_cell_length_b 21.986
_cell_length_c 21.972
_cell_angle_alpha 60.764
_cell_angle_beta 90.014
_cell_angle_gamma 89.993
_space_group_name_H-M_alt 'P 1'
_space_group_name_Hall 'P 1'
loop_
    _symmetry_equiv_pos_as_xyz
    x,y,z
loop_
    _atom_site_label
    _atom_site_type_symbol
    _atom_site_fract_x
    _atom_site_fract_y
    _atom_site_fract_z
    _atom_site_occupancy
    H0      H    0.22806   0.79861   0.68632   1.000
    H1      H    0.72807   0.79861   0.68632   1.000
    H2      H    0.02199   0.96678   0.32300   1.000
    H3      H    0.52200   0.96678   0.32304   1.000
    H4      H    0.02200   0.96234   0.21074   1.000
    H5      H    0.52202   0.96234   0.21074   1.000
    H6      H    0.47808   0.20255   0.31522   1.000
    H7      H    0.97809   0.20255   0.31522   1.000
    H8      H    0.27190   0.03072   0.67836   1.000
    H9      H    0.77191   0.03072   0.67836   1.000
    H10     H    0.27192   0.03351   0.79123   1.000
    H11     H    0.77194   0.03351   0.79123   1.000
    H12     H    0.02182   0.68498   0.79890   1.000
    H13     H    0.52183   0.68498   0.79890   1.000
    H14     H    0.22804   0.32268   0.96821   1.000
    H15     H    0.72805   0.32269   0.96821   1.000
    H16     H    0.22804   0.20996   0.96567   1.000
    H17     H    0.72805   0.20996   0.96567   1.000
    H18     H    0.27193   0.31550   0.20295   1.000
    H19     H    0.77194   0.31550   0.20295   1.000
    H20     H    0.47788   0.67896   0.03192   1.000
    H21     H    0.97789   0.67897   0.03192   1.000
    H22     H    0.47803   0.79060   0.03743   1.000
    H23     H    0.97804   0.79060   0.03743   1.000
    H24     H    0.27187   0.20213   0.31507   1.000
    H25     H    0.77188   0.20213   0.31507   1.000
    H26     H    0.47813   0.03110   0.67810   1.000
    H27     H    0.97814   0.03110   0.67810   1.000
    H28     H    0.47807   0.03390   0.79097   1.000
    H29     H    0.97809   0.03390   0.79097   1.000
    H30     H    0.02198   0.79747   0.68557   1.000
    H31     H    0.52199   0.79747   0.68557   1.000
    H32     H    0.22809   0.96696   0.32289   1.000
    H33     H    0.72811   0.96696   0.32280   1.000
    H34     H    0.22810   0.96251   0.21060   1.000
    H35     H    0.72811   0.96250   0.21060   1.000
    H36     H    0.47814   0.31596   0.20313   1.000
    H37     H    0.97815   0.31596   0.20313   1.000
    H38     H    0.27182   0.67775   0.03391   1.000
    H39     H    0.77184   0.67775   0.03391   1.000
    H40     H    0.27192   0.78947   0.03929   1.000
    H41     H    0.77194   0.78947   0.03928   1.000
    H42     H    0.22802   0.68621   0.79970   1.000
    H43     H    0.72803   0.68621   0.79970   1.000
    H44     H    0.02184   0.32228   0.96883   1.000
    H45     H    0.52185   0.32228   0.96880   1.000
    H46     H    0.02175   0.20961   0.96620   1.000
    H47     H    0.52177   0.20961   0.96620   1.000
    C48     C    0.29199   0.77312   0.71114   1.000
    C49     C    0.79200   0.77313   0.71114   1.000
    C50     C    0.45819   0.96555   0.29803   1.000
    C51     C    0.95821   0.96554   0.29800   1.000
    C52     C    0.45821   0.96291   0.23600   1.000
    C53     C    0.95823   0.96292   0.23607   1.000
    C54     C    0.04204   0.22805   0.29057   1.000
    C55     C    0.54205   0.22805   0.29057   1.000
    C56     C    0.20806   0.03166   0.70340   1.000
    C57     C    0.70808   0.03166   0.70346   1.000
    C58     C    0.20796   0.03311   0.76602   1.000
    C59     C    0.70797   0.03311   0.76602   1.000
    C60     C    0.45802   0.71026   0.77358   1.000
    C61     C    0.95804   0.71025   0.77358   1.000
    C62     C    0.29200   0.29777   0.96727   1.000
    C63     C    0.79202   0.29776   0.96720   1.000
    C64     C    0.29201   0.23512   0.96606   1.000
    C65     C    0.79203   0.23513   0.96605   1.000
    C66     C    0.20795   0.29064   0.22824   1.000
    C67     C    0.70797   0.29064   0.22824   1.000
    C68     C    0.04171   0.70346   0.03390   1.000
    C69     C    0.54173   0.70347   0.03394   1.000
    C70     C    0.04178   0.76509   0.03712   1.000
    C71     C    0.54179   0.76509   0.03713   1.000
    C72     C    0.20793   0.22781   0.29048   1.000
    C73     C    0.70794   0.22781   0.29048   1.000
    C74     C    0.04194   0.03188   0.70332   1.000
    C75     C    0.54195   0.03188   0.70332   1.000
    O76     O    0.79713   0.89876   0.58673   1.000
    O77     O    0.29696   0.97618   0.41861   1.000
    O78     O    0.79697   0.97618   0.41861   1.000
    O79     O    0.29711   0.96584   0.10848   1.000
    C80     C    0.04203   0.03333   0.76588   1.000
    C81     C    0.54205   0.03333   0.76588   1.000
    C82     C    0.45800   0.77248   0.71071   1.000
    C83     C    0.95802   0.77248   0.71070   1.000
    C84     C    0.29190   0.96565   0.29795   1.000
    C85     C    0.79192   0.96564   0.29795   1.000
    C86     C    0.29189   0.96300   0.23600   1.000
    C87     C    0.79191   0.96301   0.23599   1.000
    C88     C    0.04208   0.29090   0.22834   1.000
    C89     C    0.54209   0.29090   0.22834   1.000
    C90     C    0.20802   0.70279   0.03500   1.000
    C91     C    0.70804   0.70279   0.03505   1.000
    C92     C    0.20809   0.76445   0.03818   1.000
    C93     C    0.70811   0.76445   0.03818   1.000
    C94     C    0.29187   0.71094   0.77404   1.000
    C95     C    0.79188   0.71094   0.77400   1.000
    C96     C    0.45787   0.29754   0.96761   1.000
    C97     C    0.95789   0.29753   0.96762   1.000
    C98     C    0.45782   0.23493   0.96637   1.000
    C99     C    0.95783   0.23493   0.96636   1.000
    C100    C    0.37505   0.87247   0.61233   1.000
    C101    C    0.87507   0.87247   0.61230   1.000
    C102    C    0.37502   0.80445   0.67903   1.000
    C103    C    0.87504   0.80445   0.67903   1.000
    C104    C    0.37503   0.97360   0.39400   1.000
    C105    C    0.87504   0.97360   0.39000   1.000
    C106    C    0.37504   0.96745   0.32904   1.000
    C107    C    0.87506   0.96745   0.32904   1.000
    C108    C    0.37506   0.96222   0.20442   1.000
    C109    C    0.87507   0.96222   0.20442   1.000
    C110    C    0.37505   0.96444   0.13527   1.000
    C111    C    0.87506   0.96444   0.13527   1.000
    C112    C    0.12496   0.12733   0.38830   1.000
    C113    C    0.62497   0.12733   0.38830   1.000
    C114    C    0.12497   0.19595   0.32214   1.000
    C115    C    0.62498   0.19595   0.32214   1.000
    C116    C    0.12501   0.02556   0.60632   1.000
    C117    C    0.62502   0.02556   0.60632   1.000
    C118    C    0.12500   0.03043   0.67203   1.000
    C119    C    0.62502   0.03043   0.67203   1.000
    C120    C    0.12499   0.03339   0.79806   1.000
    C121    C    0.62500   0.03338   0.79806   1.000
    C122    C    0.12497   0.03054   0.86762   1.000
    C123    C    0.62499   0.03054   0.86762   1.000
    C124    C    0.37484   0.61325   0.87445   1.000
    C125    C    0.87486   0.61325   0.87445   1.000
    C126    C    0.37492   0.67923   0.80573   1.000
    C127    C    0.87493   0.67923   0.80573   1.000
    C128    C    0.37509   0.39511   0.97311   1.000
    C129    C    0.87510   0.39511   0.97311   1.000
    C130    C    0.37495   0.32927   0.96853   1.000
    C131    C    0.87496   0.32927   0.96853   1.000
    C132    C    0.37490   0.20289   0.96611   1.000
    C133    C    0.87492   0.20289   0.96610   1.000
    C134    C    0.37493   0.13317   0.96922   1.000
    C135    C    0.87494   0.13317   0.96923   1.000
    C136    C    0.12512   0.38969   0.12864   1.000
    C137    C    0.62513   0.38969   0.12864   1.000
    C138    C    0.12503   0.32276   0.19666   1.000
    C139    C    0.62505   0.32276   0.19666   1.000
    C140    C    0.12481   0.60787   0.02541   1.000
    C141    C    0.62482   0.60787   0.02541   1.000
    C142    C    0.12484   0.67226   0.03236   1.000
    C143    C    0.62486   0.67226   0.03236   1.000
    C144    C    0.12497   0.79622   0.03866   1.000
    C145    C    0.62499   0.79622   0.03866   1.000
    C146    C    0.12505   0.86520   0.03674   1.000
    C147    C    0.62506   0.86520   0.03674   1.000
    O148    O    0.45299   0.89873   0.58676   1.000
    O149    O    0.95300   0.89873   0.58676   1.000
    O150    O    0.45310   0.97615   0.41865   1.000
    O151    O    0.95312   0.97615   0.41865   1.000
    O152    O    0.45295   0.96589   0.10844   1.000
    O153    O    0.95296   0.96589   0.10844   1.000
    O154    O    0.20293   0.10099   0.41350   1.000
    O155    O    0.70295   0.10099   0.41350   1.000
    O156    O    0.20309   0.02351   0.58149   1.000
    O157    O    0.70310   0.02351   0.58149   1.000
    O158    O    0.20301   0.02888   0.89460   1.000
    O159    O    0.70303   0.02888   0.89460   1.000
    O160    O    0.29685   0.58897   0.90126   1.000
    O161    O    0.79687   0.58897   0.90126   1.000
    O162    O    0.29714   0.42067   0.97440   1.000
    O163    O    0.79716   0.42067   0.97444   1.000
    O164    O    0.29690   0.10632   0.97090   1.000
    O165    O    0.79691   0.10632   0.97090   1.000
    O166    O    0.04712   0.41550   0.10270   1.000
    O167    O    0.54713   0.41550   0.10270   1.000
    O168    O    0.04685   0.58401   0.02137   1.000
    O169    O    0.54687   0.58401   0.02137   1.000
    O170    O    0.04716   0.89205   0.03529   1.000
    O171    O    0.54718   0.89205   0.03520   1.000
    O172    O    0.04701   0.10100   0.41355   1.000
    O173    O    0.54702   0.10100   0.41355   1.000
    O174    O    0.04692   0.02363   0.58141   1.000
    O175    O    0.54693   0.02363   0.58141   1.000
    O176    O    0.04694   0.02910   0.89448   1.000
    O177    O    0.54695   0.02910   0.89448   1.000
    O178    O    0.29711   0.89876   0.58673   1.000
    O179    O    0.79712   0.96584   0.10848   1.000
    O180    O    0.20323   0.41479   0.10241   1.000
    O181    O    0.70325   0.41479   0.10241   1.000
    O182    O    0.20269   0.58260   0.02367   1.000
    O183    O    0.70270   0.58260   0.02367   1.000
    O184    O    0.20297   0.89185   0.03558   1.000
    O185    O    0.70298   0.89185   0.03558   1.000
    O186    O    0.45272   0.58731   0.90013   1.000
    O187    O    0.95274   0.58731   0.90013   1.000
    O188    O    0.45326   0.41961   0.97580   1.000
    O189    O    0.95327   0.41961   0.97580   1.000
    O190    O    0.45301   0.10637   0.97087   1.000
    O191    O    0.95303   0.10637   0.97087   1.000
loop_
    _geom_bond_atom_site_label_1
    _geom_bond_atom_site_label_2
    _geom_bond_distance
    _geom_bond_site_symmetry_2
    _ccdc_geom_bond_type
    O168   C140      1.27506      .   S
    O169   C141      1.27505      .   S
    O182   C140      1.27489      .   S
    O183   C141      1.27486      .   S
    C140   C142      1.49612      .   S
    C141   C143      1.49614      .   S
    H21    C68       1.08825  1_655   S
    H20    C69       1.08891      .   S
    C142   C68       1.40326      .   S
    C142   C90       1.40318      .   S
    C143   C69       1.40353      .   S
    C143   C91       1.40350      .   S
    C68    C70       1.39092      .   S
    H38    C90       1.08855      .   S
    H39    C91       1.08889      .   S
    C69    C71       1.39047      .   S
    C90    C92       1.39119      .   S
    C91    C93       1.39050      .   S
    O171   C147      1.27450      .   S
    O170   C146      1.27490      .   S
    O184   C146      1.27487      .   S
    O185   C147      1.27487      .   S
    C147   C145      1.49647      .   S
    C146   C144      1.49647      .   S
    C70    H23       1.08860  1_455   S
    C70    C144      1.40341      .   S
    C71    H22       1.08894      .   S
    C71    C145      1.40338      .   S
    C93    C145      1.40341      .   S
    C93    H41       1.08895      .   S
    C92    C144      1.40338      .   S
    C92    H40       1.08897      .   S
    O181   C137      1.27619      .   S
    O180   C136      1.27620      .   S
    O166   C136      1.27631      .   S
    O167   C137      1.27631      .   S
    O152   C110      1.27504      .   S
    O153   C111      1.27501      .   S
    O79    C110      1.27509      .   S
    O179   C111      1.27506      .   S
    C137   C139      1.50024      .   S
    C136   C138      1.50024      .   S
    C110   C108      1.49613      .   S
    C111   C109      1.49616      .   S
    C138   C66       1.40295      .   S
    C138   C88       1.40292      .   S
    C139   C67       1.40295      .   S
    C139   C89       1.40292      .   S
    H18    C66       1.08846      .   S
    H19    C67       1.08845      .   S
    H37    C88       1.08815  1_655   S
    H36    C89       1.08851      .   S
    C109   C87       1.40348      .   S
    C109   C53       1.40348      .   S
    C108   C52       1.40264      .   S
    C108   C86       1.40354      .   S
    H35    C87       1.08895      .   S
    H34    C86       1.08900      .   S
    H4     C53       1.08865  1_455   S
    H5     C52       1.08814      .   S
    C66    C72       1.39035      .   S
    C67    C73       1.39036      .   S
    C89    C55       1.39047      .   S
    C88    C54       1.39046      .   S
    C87    C85       1.39052      .   S
    C52    C50       1.39223      .   S
    C86    C84       1.39053      .   S
    C53    C51       1.38980      .   S
    C72    H24       1.08854      .   S
    C72    C114      1.40290      .   S
    C73    H25       1.08854      .   S
    C73    C115      1.40290      .   S
    C54    H7        1.08818  1_455   S
    C54    C114      1.40290      .   S
    C55    H6        1.08854      .   S
    C55    C115      1.40290      .   S
    C84    H32       1.08894      .   S
    C84    C106      1.40337      .   S
    C85    H33       1.08799      .   S
    C85    C107      1.40345      .   S
    C51    H2        1.08858  1_655   S
    C51    C107      1.40385      .   S
    C50    H3        1.08896      .   S
    C50    C106      1.40347      .   S
    C115   C113      1.49904      .   S
    C114   C112      1.49905      .   S
    C106   C104      1.49796      .   S
    C107   C105      1.41040      .   S
    C113   O155      1.27508      .   S
    C113   O173      1.27536      .   S
    C112   O154      1.27508      .   S
    C112   O172      1.27538      .   S
    C105   O78       1.31696      .   S
    C105   O151      1.31697      .   S
    C104   O77       1.27543      .   S
    C104   O150      1.27545      .   S
    O175   C117      1.27482      .   S
    O174   C116      1.27482      .   S
    O157   C117      1.27477      .   S
    O156   C116      1.27478      .   S
    O76    C101      1.27617      .   S
    O178   C100      1.27633      .   S
    O149   C101      1.27612      .   S
    O148   C100      1.27625      .   S
    C117   C119      1.49906      .   S
    C116   C118      1.49905      .   S
    C101   C103      1.49806      .   S
    C100   C102      1.49775      .   S
    C118   C74       1.40285      .   S
    C118   C56       1.40215      .   S
    C119   C75       1.40285      .   S
    C119   C57       1.40283      .   S
    H27    C74       1.08858  1_655   S
    H26    C75       1.08896      .   S
    H9     C57       1.08884      .   S
    H8     C56       1.08816      .   S
    C102   C82       1.40343      .   S
    C102   C48       1.40346      .   S
    C103   C83       1.40337      .   S
    C103   C49       1.40346      .   S
    H31    C82       1.08852      .   S
    H30    C83       1.08808  1_455   S
    H1     C49       1.08850      .   S
    H0     C48       1.08851      .   S
    C74    C80       1.39048      .   S
    C75    C81       1.39044      .   S
    C56    C58       1.39175      .   S
    C57    C59       1.39041      .   S
    C83    C61       1.39078      .   S
    C82    C60       1.39061      .   S
    C48    C94       1.39048      .   S
    C49    C95       1.39006      .   S
    C80    H29       1.08797  1_455   S
    C80    C120      1.40325      .   S
    C81    H28       1.08836      .   S
    C81    C121      1.40325      .   S
    C58    H10       1.08840      .   S
    C58    C120      1.40329      .   S
    C59    H11       1.08842      .   S
    C59    C121      1.40329      .   S
    C61    H12       1.08816  1_655   S
    C61    C127      1.40292      .   S
    C60    H13       1.08854      .   S
    C60    C126      1.40294      .   S
    C95    H43       1.08857      .   S
    C95    C127      1.40316      .   S
    C94    H42       1.08834      .   S
    C94    C126      1.40293      .   S
    C120   C122      1.49877      .   S
    C121   C123      1.49879      .   S
    C126   C124      1.49822      .   S
    C127   C125      1.49822      .   S
    C123   O177      1.27713      .   S
    C123   O159      1.27715      .   S
    C122   O176      1.27713      .   S
    C122   O158      1.27715      .   S
    C125   O187      1.27404      .   S
    C125   O161      1.27413      .   S
    C124   O186      1.27404      .   S
    C124   O160      1.27411      .   S
    H16    C64       1.08834      .   S
    H17    C65       1.08837      .   S
    C65    C133      1.40275      .   S
    C65    C63       1.38954      .   S
    C64    C132      1.40271      .   S
    C64    C62       1.39043      .   S
    C133   C99       1.40274      .   S
    C133   C135      1.50054      .   S
    C132   C98       1.40267      .   S
    C132   C134      1.50065      .   S
    H46    C99       1.08802  1_455   S
    H47    C98       1.08835      .   S
    C99    C97       1.39006      .   S
    C98    C96       1.39008      .   S
    C63    H15       1.08897      .   S
    C63    C131      1.40323      .   S
    C62    H14       1.08849      .   S
    C62    C130      1.40277      .   S
    C96    C130      1.40291      .   S
    C96    H45       1.08826      .   S
    C97    C131      1.40292      .   S
    C97    H44       1.08809  1_655   S
    C130   C128      1.49935      .   S
    C131   C129      1.49941      .   S
    C134   O190      1.27624      .   S
    C134   O164      1.27605      .   S
    C135   O191      1.27624      .   S
    C135   O165      1.27608      .   S
    C129   O163      1.27637      .   S
    C129   O189      1.27634      .   S
    C128   O162      1.27619      .   S
    C128   O188      1.27637      .   S
