# CIF file generated by openbabel 2.4.90, see http://openbabel.sf.net
data_I
_chemical_name_common ''
_cell_length_a 14.609
_cell_length_b 21.986
_cell_length_c 21.972
_cell_angle_alpha 60.764
_cell_angle_beta 90.014
_cell_angle_gamma 89.993
_space_group_name_H-M_alt 'P 1'
_space_group_name_Hall 'P 1'
loop_
    _symmetry_equiv_pos_as_xyz
    x,y,z
loop_
    _atom_site_label
    _atom_site_type_symbol
    _atom_site_fract_x
    _atom_site_fract_y
    _atom_site_fract_z
    _atom_site_occupancy
    H0      H    0.37533   0.45796   0.10071   1.000
    H1      H    0.87535   0.45796   0.10071   1.000
    H2      H    0.12507   0.89977   0.54029   1.000
    H3      H    0.62509   0.89977   0.54029   1.000
    H4      H    0.37497   0.09981   0.45949   1.000
    H5      H    0.87498   0.09980   0.45949   1.000
    H6      H    0.12536   0.46390   0.93737   1.000
    H7      H    0.62538   0.46390   0.93737   1.000
    H8      H    0.12505   0.08092   0.00991   1.000
    H9      H    0.62506   0.08092   0.00991   1.000
    H10     H    0.37494   0.98953   0.92014   1.000
    H11     H    0.87496   0.98954   0.92014   1.000
    O12     O    0.37500   0.05202   0.49790   1.000
    O13     O    0.87501   0.05202   0.49790   1.000
    O14     O    0.12502   0.94779   0.50232   1.000
    O15     O    0.62504   0.94779   0.50232   1.000
    O16     O    0.37514   0.49698   0.05323   1.000
    O17     O    0.87516   0.49698   0.05323   1.000
    O18     O    0.12513   0.50116   0.94933   1.000
    O19     O    0.62514   0.50116   0.94933   1.000
    O20     O    0.37501   0.97150   0.97044   1.000
    O21     O    0.87503   0.97150   0.97044   1.000
    O22     O    0.12500   0.03053   0.02880   1.000
    O23     O    0.62502   0.03053   0.02880   1.000
loop_
    _geom_bond_atom_site_label_1
    _geom_bond_atom_site_label_2
    _geom_bond_distance
    _geom_bond_site_symmetry_2
    _ccdc_geom_bond_type
    H8     O22       0.97493      .   S
    H9     O23       0.97493      .   S
    O17    H1        0.97472      .   S
    O16    H0        0.97472      .   S
    H5     O13       0.97462      .   S
    H4     O12       0.97463      .   S
    O15    H3        0.97485      .   S
    O14    H2        0.97485      .   S
    H10    O20       0.97498      .   S
    H11    O21       0.97498      .   S
    H6     O18       0.97482      .   S
    H7     O19       0.97480      .   S
