# CIF file generated by openbabel 2.4.90, see http://openbabel.sf.net
data_I
_chemical_name_common ''
_cell_length_a 14.609
_cell_length_b 21.986
_cell_length_c 21.972
_cell_angle_alpha 60.764
_cell_angle_beta 90.014
_cell_angle_gamma 89.993
_space_group_name_H-M_alt 'P 1'
_space_group_name_Hall 'P 1'
loop_
    _symmetry_equiv_pos_as_xyz
    x,y,z
loop_
    _atom_site_label
    _atom_site_type_symbol
    _atom_site_fract_x
    _atom_site_fract_y
    _atom_site_fract_z
    _atom_site_occupancy
    Zr0     Zr   0.99984   0.99968   0.50010   1.000
    Zr1     Zr   0.49986   0.99968   0.50010   1.000
    Zr2     Zr   0.25017   0.99969   0.50009   1.000
    Zr3     Zr   0.75018   0.99969   0.50009   1.000
    Zr4     Zr   0.24994   0.50191   0.00000   1.000
    Zr5     Zr   0.74995   0.50191   0.00000   1.000
    Zr6     Zr   0.00014   0.50184   0.00000   1.000
    Zr7     Zr   0.50015   0.50184   0.00000   1.000
    Zr8     Zr   0.00005   0.99806   0.00240   1.000
    Zr9     Zr   0.50006   0.99806   0.00247   1.000
    Zr10    Zr   0.24993   0.99795   0.00256   1.000
    Zr11    Zr   0.74994   0.99794   0.00256   1.000
    Zr12    Zr   0.37533   0.45796   0.10071   1.000
    Zr13    Zr   0.87535   0.45796   0.10071   1.000
    Zr14    Zr   0.12507   0.89977   0.54029   1.000
    Zr15    Zr   0.62509   0.89977   0.54029   1.000
    Zr16    Zr   0.37497   0.09981   0.45949   1.000
    Zr17    Zr   0.87498   0.09980   0.45949   1.000
    Zr18    Zr   0.12536   0.46390   0.93737   1.000
    Zr19    Zr   0.62538   0.46390   0.93737   1.000
    Zr20    Zr   0.12505   0.08092   0.00991   1.000
    Zr21    Zr   0.62506   0.08092   0.00991   1.000
    Zr22    Zr   0.37494   0.98953   0.92014   1.000
    Zr23    Zr   0.87496   0.98954   0.92014   1.000
    Zr24    Zr   0.37500   0.05202   0.49790   1.000
    Zr25    Zr   0.87501   0.05202   0.49790   1.000
    Zr26    Zr   0.12502   0.94779   0.50232   1.000
    Zr27    Zr   0.62504   0.94779   0.50232   1.000
    Zr28    Zr   0.37514   0.49698   0.05323   1.000
    Zr29    Zr   0.87516   0.49698   0.05323   1.000
    Zr30    Zr   0.12513   0.50116   0.94933   1.000
    Zr31    Zr   0.62514   0.50116   0.94933   1.000
    Zr32    Zr   0.37501   0.97150   0.97044   1.000
    Zr33    Zr   0.87503   0.97150   0.97044   1.000
    Zr34    Zr   0.12500   0.03053   0.02880   1.000
    Zr35    Zr   0.62502   0.03053   0.02880   1.000
    O36     O    0.18753   0.50153   0.97466   1.000
    O37     O    0.68755   0.50153   0.97466   1.000
    O38     O    0.93765   0.49941   0.02661   1.000
    O39     O    0.43765   0.49941   0.02661   1.000
    O40     O    0.93754   0.98478   0.98642   1.000
    O41     O    0.56254   0.01429   0.01563   1.000
    O42     O    0.43754   0.98478   0.98645   1.000
    O43     O    0.18747   0.01423   0.01568   1.000
    O44     O    0.12503   0.05572   0.01935   1.000
    O45     O    0.62504   0.05572   0.01935   1.000
    O46     O    0.87525   0.47747   0.07697   1.000
    O47     O    0.37524   0.47747   0.07697   1.000
    O48     O    0.87500   0.07591   0.47869   1.000
    O49     O    0.37498   0.07591   0.47869   1.000
    O50     O    0.31258   0.02585   0.49899   1.000
    O51     O    0.93743   0.02585   0.49900   1.000
    O52     O    0.68761   0.97374   0.50120   1.000
    O53     O    0.18759   0.97374   0.50120   1.000
    O54     O    0.62506   0.92378   0.52130   1.000
    O55     O    0.12505   0.92378   0.52130   1.000
    O56     O    0.37498   0.98052   0.94529   1.000
    O57     O    0.87499   0.98052   0.94529   1.000
    O58     O    0.12525   0.48253   0.94335   1.000
    O59     O    0.62526   0.48253   0.94335   1.000
    O60     O    0.43743   0.02585   0.49900   1.000
    O61     O    0.81260   0.02585   0.49899   1.000
    O62     O    0.06243   0.97374   0.50121   1.000
    O63     O    0.56245   0.97374   0.50121   1.000
    O64     O    0.31254   0.49945   0.02661   1.000
    O65     O    0.81255   0.49945   0.02661   1.000
    O66     O    0.06263   0.50150   0.97466   1.000
    O67     O    0.56265   0.50150   0.97466   1.000
    O68     O    0.31247   0.98472   0.98650   1.000
    O69     O    0.81249   0.98472   0.98650   1.000
    O70     O    0.06253   0.01429   0.01560   1.000
    O71     O    0.68748   0.01423   0.01568   1.000
    N72     N    0.62493   0.73529   0.03349   1.000
    O73     O    0.67563   0.63877   0.02266   1.000
    O74     O    0.67569   0.84009   0.02628   1.000
    O75     O    0.57422   0.63911   0.02209   1.000
    O76     O    0.57427   0.84017   0.02616   1.000
    N77     N    0.12491   0.73529   0.03349   1.000
    O78     O    0.07420   0.63911   0.02209   1.000
    O79     O    0.17561   0.63877   0.02266   1.000
    O80     O    0.17568   0.84009   0.02628   1.000
    O81     O    0.07426   0.84017   0.02617   1.000
    N82     N    0.87505   0.96672   0.26550   1.000
    O83     O    0.92577   0.97731   0.36244   1.000
    O84     O    0.92578   0.97435   0.16046   1.000
    O85     O    0.82429   0.97430   0.16051   1.000
    O86     O    0.82432   0.97732   0.36243   1.000
    N87     N    0.62504   0.25885   0.25887   1.000
    O88     O    0.57434   0.35876   0.15511   1.000
    O89     O    0.67582   0.35860   0.15504   1.000
    O90     O    0.57424   0.15459   0.35785   1.000
    O91     O    0.67580   0.15459   0.35783   1.000
    N92     N    0.37496   0.74233   0.74290   1.000
    O93     O    0.32430   0.84578   0.64315   1.000
    O94     O    0.42569   0.84577   0.64316   1.000
    O95     O    0.42570   0.64345   0.84648   1.000
    O96     O    0.32417   0.64388   0.84676   1.000
    N97     N    0.87497   0.74233   0.74289   1.000
    O98     O    0.82431   0.84577   0.64315   1.000
    O99     O    0.92569   0.84577   0.64316   1.000
    O100    O    0.82419   0.64388   0.84676   1.000
    O101    O    0.92570   0.64345   0.84648   1.000
    N102    N    0.37504   0.96672   0.26576   1.000
    O103    O    0.42576   0.97731   0.36257   1.000
    O104    O    0.42578   0.97435   0.16061   1.000
    O105    O    0.32430   0.97732   0.36255   1.000
    O106    O    0.32428   0.97430   0.16064   1.000
    N107    N    0.12502   0.25885   0.25887   1.000
    O108    O    0.07433   0.35876   0.15511   1.000
    O109    O    0.17580   0.35860   0.15504   1.000
    O110    O    0.07423   0.15459   0.35785   1.000
    O111    O    0.17579   0.15459   0.35783   1.000
    N112    N    0.87498   0.26521   0.96907   1.000
    O113    O    0.82427   0.36325   0.97814   1.000
    O114    O    0.82421   0.15867   0.97790   1.000
    O115    O    0.92584   0.36297   0.97848   1.000
    O116    O    0.92576   0.15871   0.97785   1.000
    N117    N    0.12500   0.03027   0.73583   1.000
    O118    O    0.07419   0.02096   0.63829   1.000
    O119    O    0.07425   0.02192   0.84214   1.000
    O120    O    0.17581   0.02093   0.63831   1.000
    O121    O    0.17573   0.02184   0.84221   1.000
    N122    N    0.37497   0.26521   0.96907   1.000
    O123    O    0.32426   0.36325   0.97814   1.000
    O124    O    0.32419   0.15867   0.97790   1.000
    O125    O    0.42584   0.36297   0.97849   1.000
    O126    O    0.42576   0.15871   0.97787   1.000
    N127    N    0.62501   0.03027   0.73583   1.000
    O128    O    0.57426   0.02192   0.84215   1.000
    O129    O    0.57420   0.02096   0.63829   1.000
    O130    O    0.67582   0.02093   0.63831   1.000
    O131    O    0.67575   0.02184   0.84221   1.000
loop_
    _geom_bond_atom_site_label_1
    _geom_bond_atom_site_label_2
    _geom_bond_distance
    _geom_bond_site_symmetry_2
    _ccdc_geom_bond_type
    Zr4    O36       1.07020  1_554   S
    Zr30   O36       1.07020      .   S
    Zr5    O37       1.07020  1_554   S
    Zr31   O37       1.07020      .   S
    Zr6    O38       1.07146  1_455   S
    Zr29   O38       1.07146      .   S
    Zr7    O39       1.07164      .   S
    Zr28   O39       1.07164      .   S
    Zr8    O40       1.06893  1_454   S
    Zr33   O40       1.06893      .   S
    Zr9    O41       1.07000  1_565   S
    Zr35   O41       1.07000      .   S
    Zr9    O42       1.06946  1_554   S
    Zr32   O42       1.06946      .   S
    Zr10   O43       1.07003  1_565   S
    Zr34   O43       1.07003      .   S
    Zr20   O44       0.48747      .   S
    Zr34   O44       0.48747      .   S
    Zr21   O45       0.48747      .   S
    Zr35   O45       0.48747      .   S
    Zr29   O46       0.48736      .   S
    Zr13   O46       0.48736      .   S
    Zr28   O47       0.48736      .   S
    Zr12   O47       0.48736      .   S
    Zr17   O48       0.48731      .   S
    Zr25   O48       0.48731      .   S
    Zr16   O49       0.48732      .   S
    Zr24   O49       0.48732      .   S
    Zr24   O50       1.07222      .   S
    Zr2    O50       1.07222  1_565   S
    Zr25   O51       1.07206      .   S
    Zr0    O51       1.07206  1_565   S
    Zr3    O52       1.07150      .   S
    Zr27   O52       1.07150      .   S
    Zr2    O53       1.07151      .   S
    Zr26   O53       1.07151      .   S
    Zr27   O54       0.48743      .   S
    Zr15   O54       0.48743      .   S
    Zr26   O55       0.48743      .   S
    Zr14   O55       0.48743      .   S
    Zr22   O56       0.48749      .   S
    Zr32   O56       0.48749      .   S
    Zr23   O57       0.48749      .   S
    Zr33   O57       0.48749      .   S
    Zr18   O58       0.48741      .   S
    Zr30   O58       0.48741      .   S
    Zr19   O59       0.48740      .   S
    Zr31   O59       0.48740      .   S
    Zr24   O60       1.07225      .   S
    Zr1    O60       1.07225  1_565   S
    Zr25   O61       1.07222      .   S
    Zr3    O61       1.07222  1_565   S
    Zr26   O62       1.07161      .   S
    Zr0    O62       1.07161  1_655   S
    Zr27   O63       1.07161      .   S
    Zr1    O63       1.07161      .   S
    Zr28   O64       1.07246      .   S
    Zr4    O64       1.07246      .   S
    Zr29   O65       1.07245      .   S
    Zr5    O65       1.07245      .   S
    Zr30   O66       1.07136      .   S
    Zr6    O66       1.07136  1_554   S
    Zr31   O67       1.07136      .   S
    Zr7    O67       1.07136  1_554   S
    Zr32   O68       1.06965      .   S
    Zr10   O68       1.06965  1_554   S
    Zr33   O69       1.06964      .   S
    Zr11   O69       1.06964  1_554   S
    Zr34   O70       1.07032      .   S
    Zr8    O70       1.07032  1_565   S
    Zr35   O71       1.07004      .   S
    Zr11   O71       1.07004  1_565   S
    N72    O73       2.36665      .   S
    Zr5    O73       3.45608      .   S
    N72    O74       2.35126      .   S
    Zr11   O74       3.42450      .   S
    N72    O75       2.36669      .   S
    Zr7    O75       3.45621      .   S
    N72    O76       2.35112      .   S
    Zr9    O76       3.42497      .   S
    N77    O78       2.36670      .   S
    Zr6    O78       3.45621      .   S
    N77    O79       2.36665      .   S
    Zr4    O79       3.45606      .   S
    N77    O80       2.35126      .   S
    Zr10   O80       3.42451      .   S
    N77    O81       2.35117      .   S
    Zr8    O81       3.42441      .   S
    N82    O83       2.37141      .   S
    Zr0    O83       3.46598      .   S
    N82    O84       2.35091      .   S
    Zr8    O84       3.42687  1_455   S
    N82    O85       2.35004      .   S
    Zr11   O85       3.42497      .   S
    N82    O86       2.37169      .   S
    Zr3    O86       3.46665      .   S
    N87    O88       2.38291      .   S
    Zr7    O88       3.49434      .   S
    N87    O89       2.38301      .   S
    Zr5    O89       3.49614      .   S
    N87    O90       2.38035      .   S
    Zr1    O90       3.48627  1_565   S
    N87    O91       2.37955      .   S
    Zr3    O91       3.48553  1_565   S
    N92    O93       2.37770      .   S
    Zr2    O93       3.48017      .   S
    N92    O94       2.37834      .   S
    Zr1    O94       3.48113      .   S
    N92    O95       2.37086      .   S
    Zr7    O95       3.46317  1_554   S
    N92    O96       2.37053      .   S
    Zr4    O96       3.46299  1_554   S
    N97    O98       2.37766      .   S
    Zr3    O98       3.48014      .   S
    N97    O99       2.37829      .   S
    Zr0    O99       3.48102      .   S
    N97    O100      2.37056      .   S
    Zr5    O100      3.46301  1_554   S
    N97    O101      2.37086      .   S
    Zr6    O101      3.46311  1_454   S
    N102   O103      2.36877      .   S
    Zr1    O103      3.46341      .   S
    N102   O104      2.35323      .   S
    Zr9    O104      3.42853      .   S
    N102   O105      2.36904      .   S
    Zr2    O105      3.46402      .   S
    N102   O106      2.35271      .   S
    Zr10   O106      3.42762      .   S
    N107   O108      2.38291      .   S
    Zr6    O108      3.49434      .   S
    N107   O109      2.38301      .   S
    Zr4    O109      3.49613      .   S
    N107   O110      2.38036      .   S
    Zr0    O110      3.48627  1_665   S
    N107   O111      2.37954      .   S
    Zr2    O111      3.48552  1_565   S
    N112   O113      2.37795      .   S
    Zr5    O113      3.48319  1_554   S
    N112   O114      2.37298      .   S
    Zr11   O114      3.47687  1_564   S
    N112   O115      2.37681      .   S
    Zr6    O115      3.48345  1_454   S
    N112   O116      2.37232      .   S
    Zr8    O116      3.47590  1_464   S
    N117   O118      2.36922      .   S
    Zr0    O118      3.46472  1_665   S
    N117   O119      2.37094      .   S
    Zr8    O119      3.47094  1_564   S
    N117   O120      2.36954      .   S
    Zr2    O120      3.46534  1_565   S
    N117   O121      2.37122      .   S
    Zr10   O121      3.47196  1_564   S
    N122   O123      2.37783      .   S
    Zr4    O123      3.48333  1_554   S
    N122   O124      2.37298      .   S
    Zr10   O124      3.47686  1_564   S
    N122   O125      2.37682      .   S
    Zr7    O125      3.48355  1_554   S
    N122   O126      2.37219      .   S
    Zr9    O126      3.47559  1_564   S
    N127   O128      2.37126      .   S
    Zr9    O128      3.47198  1_564   S
    N127   O129      2.36925      .   S
    Zr1    O129      3.46475  1_565   S
    N127   O130      2.36959      .   S
    Zr3    O130      3.46538  1_565   S
    N127   O131      2.37119      .   S
    Zr11   O131      3.47193  1_564   S
