# CIF file generated by openbabel 2.4.90, see http://openbabel.sf.net
data_I
_chemical_name_common ''
_cell_length_a 11.272
_cell_length_b 24.217
_cell_length_c 23.214
_cell_angle_alpha 98.079
_cell_angle_beta 90.007
_cell_angle_gamma 89.999
_space_group_name_H-M_alt 'P 1'
_space_group_name_Hall 'P 1'
loop_
    _symmetry_equiv_pos_as_xyz
    x,y,z
loop_
    _atom_site_label
    _atom_site_type_symbol
    _atom_site_fract_x
    _atom_site_fract_y
    _atom_site_fract_z
    _atom_site_occupancy
    S0      S    0.25911   0.19692   0.60590   1.000
    S1      S    0.25912   0.69692   0.60590   1.000
    S2      S    0.75911   0.19692   0.60590   1.000
    S3      S    0.75912   0.69692   0.60593   1.000
    S4      S    0.00914   0.05310   0.89401   1.000
    S5      S    0.00914   0.55309   0.89401   1.000
    S6      S    0.50914   0.05310   0.89401   1.000
    S7      S    0.50914   0.55309   0.89401   1.000
    S8      S    0.24088   0.30308   0.39404   1.000
    S9      S    0.24089   0.80308   0.39400   1.000
    S10     S    0.74089   0.30308   0.39404   1.000
    S11     S    0.74089   0.80308   0.39400   1.000
    S12     S    0.49086   0.44691   0.10596   1.000
    S13     S    0.49086   0.94691   0.10596   1.000
    S14     S    0.99086   0.44691   0.10596   1.000
    S15     S    0.99086   0.94691   0.10596   1.000
    O16     O    0.13073   0.19201   0.59974   1.000
    O17     O    0.13074   0.69201   0.59974   1.000
    O18     O    0.63074   0.19201   0.59974   1.000
    O19     O    0.63074   0.69201   0.59974   1.000
    O20     O    0.38076   0.05801   0.90020   1.000
    O21     O    0.38076   0.55800   0.90020   1.000
    O22     O    0.88076   0.05801   0.90020   1.000
    O23     O    0.88077   0.55800   0.90020   1.000
    O24     O    0.36926   0.30799   0.40023   1.000
    O25     O    0.36927   0.80799   0.40023   1.000
    O26     O    0.86926   0.30799   0.40023   1.000
    O27     O    0.86927   0.80799   0.40023   1.000
    O28     O    0.11924   0.44200   0.09970   1.000
    O29     O    0.11924   0.94199   0.09977   1.000
    O30     O    0.61924   0.44200   0.09970   1.000
    O31     O    0.61924   0.94199   0.09977   1.000
loop_
    _geom_bond_atom_site_label_1
    _geom_bond_atom_site_label_2
    _geom_bond_distance
    _geom_bond_site_symmetry_2
    _ccdc_geom_bond_type
    O28    S14       1.45753  1_455   S
    O30    S12       1.45755      .   S
    O29    S15       1.45740  1_455   S
    O31    S13       1.45741      .   S
    S11    O27       1.45746      .   S
    S9     O25       1.45746      .   S
    S8     O24       1.45738      .   S
    S10    O26       1.45739      .   S
    O16    S0        1.45733      .   S
    O19    S3        1.45740      .   S
    O18    S2        1.45733      .   S
    O17    S1        1.45734      .   S
    S4     O22       1.45739  1_455   S
    S5     O23       1.45740  1_455   S
    S6     O20       1.45741      .   S
    S7     O21       1.45741      .   S
