# CIF file generated by openbabel 2.4.90, see http://openbabel.sf.net
data_I
_chemical_name_common ''
_cell_length_a 11.272
_cell_length_b 24.217
_cell_length_c 23.214
_cell_angle_alpha 98.079
_cell_angle_beta 90.007
_cell_angle_gamma 89.999
_space_group_name_H-M_alt 'P 1'
_space_group_name_Hall 'P 1'
loop_
    _symmetry_equiv_pos_as_xyz
    x,y,z
loop_
    _atom_site_label
    _atom_site_type_symbol
    _atom_site_fract_x
    _atom_site_fract_y
    _atom_site_fract_z
    _atom_site_occupancy
    C0      C    0.85723   0.69773   0.86343   1.000
    C1      C    0.14627   0.33078   0.96791   1.000
    C2      C    0.14627   0.83078   0.96790   1.000
    C3      C    0.64628   0.33078   0.96791   1.000
    C4      C    0.10369   0.08077   0.46791   1.000
    C5      C    0.10369   0.58077   0.46790   1.000
    C6      C    0.60369   0.08077   0.46791   1.000
    C7      C    0.60369   0.58077   0.46791   1.000
    C8      C    0.39630   0.41923   0.53206   1.000
    C9      C    0.39630   0.91923   0.53206   1.000
    C10     C    0.89630   0.41923   0.53206   1.000
    C11     C    0.89630   0.91923   0.53207   1.000
    C12     C    0.35722   0.19774   0.86343   1.000
    C13     C    0.35723   0.69773   0.86343   1.000
    C14     C    0.85723   0.19774   0.86343   1.000
    O15     O    0.26558   0.69919   0.89527   1.000
    O16     O    0.76558   0.19920   0.89527   1.000
    O17     O    0.76558   0.69919   0.89527   1.000
    O18     O    0.46398   0.19462   0.87998   1.000
    O19     O    0.46398   0.69462   0.87998   1.000
    O20     O    0.96398   0.19462   0.87998   1.000
    O21     O    0.96398   0.69462   0.87998   1.000
    O22     O    0.31252   0.45381   0.52468   1.000
    C23     C    0.64628   0.83078   0.96790   1.000
    C24     C    0.10727   0.05227   0.63653   1.000
    C25     C    0.10727   0.55227   0.63653   1.000
    C26     C    0.60727   0.05227   0.63653   1.000
    C27     C    0.60727   0.55227   0.63653   1.000
    C28     C    0.14277   0.30227   0.13650   1.000
    C29     C    0.14277   0.80226   0.13650   1.000
    C30     C    0.64277   0.30227   0.13655   1.000
    C31     C    0.64277   0.80226   0.13650   1.000
    C32     C    0.35372   0.16922   0.03207   1.000
    C33     C    0.35372   0.66922   0.03207   1.000
    C34     C    0.85372   0.16922   0.03207   1.000
    C35     C    0.85372   0.66922   0.03207   1.000
    C36     C    0.39272   0.44773   0.36344   1.000
    C37     C    0.39273   0.94773   0.36344   1.000
    C38     C    0.89273   0.44773   0.36344   1.000
    C39     C    0.89273   0.94773   0.36344   1.000
    O40     O    0.50509   0.42815   0.52474   1.000
    O41     O    0.50509   0.92815   0.52474   1.000
    O42     O    0.00000   0.42815   0.52474   1.000
    O43     O    0.00000   0.92815   0.52474   1.000
    O44     O    0.26557   0.19919   0.89527   1.000
    O45     O    0.31252   0.95381   0.52468   1.000
    O46     O    0.81252   0.45381   0.52468   1.000
    O47     O    0.81252   0.95381   0.52468   1.000
    O48     O    0.25506   0.32186   0.97523   1.000
    O49     O    0.25506   0.82186   0.97520   1.000
    O50     O    0.75506   0.32186   0.97523   1.000
    O51     O    0.75506   0.82186   0.97524   1.000
    O52     O    0.01560   0.05082   0.60469   1.000
    O53     O    0.01561   0.55082   0.60469   1.000
    O54     O    0.51560   0.05082   0.60460   1.000
    O55     O    0.51560   0.55082   0.60469   1.000
    O56     O    0.21401   0.05539   0.61998   1.000
    O57     O    0.21402   0.55539   0.61998   1.000
    O58     O    0.71401   0.05539   0.61998   1.000
    O59     O    0.71402   0.55539   0.61998   1.000
    O60     O    0.06250   0.29620   0.97529   1.000
    O61     O    0.06250   0.79619   0.97529   1.000
    O62     O    0.56250   0.29620   0.97529   1.000
    O63     O    0.56250   0.79619   0.97529   1.000
    O64     O    0.99490   0.07185   0.47523   1.000
    O65     O    0.99490   0.57185   0.47523   1.000
    O66     O    0.49491   0.07185   0.47523   1.000
    O67     O    0.49491   0.57185   0.47523   1.000
    O68     O    0.23442   0.30081   0.10470   1.000
    O69     O    0.23442   0.80081   0.10470   1.000
    O70     O    0.73442   0.30081   0.10470   1.000
    O71     O    0.73442   0.80081   0.10470   1.000
    O72     O    0.03601   0.30538   0.11999   1.000
    O73     O    0.03602   0.80538   0.11999   1.000
    O74     O    0.53602   0.30538   0.11999   1.000
    O75     O    0.53602   0.80538   0.11999   1.000
    O76     O    0.18747   0.04619   0.47529   1.000
    O77     O    0.18747   0.54619   0.47529   1.000
    O78     O    0.68747   0.04619   0.47500   1.000
    O79     O    0.68747   0.54619   0.47529   1.000
    O80     O    0.24493   0.17814   0.02474   1.000
    O81     O    0.24493   0.67814   0.02474   1.000
    O82     O    0.74493   0.17815   0.02474   1.000
    O83     O    0.74493   0.67814   0.02474   1.000
    O84     O    0.48439   0.44918   0.39529   1.000
    O85     O    0.48439   0.94918   0.39529   1.000
    O86     O    0.98439   0.44918   0.39529   1.000
    O87     O    0.98439   0.94918   0.39529   1.000
    O88     O    0.28598   0.44461   0.37999   1.000
    O89     O    0.28598   0.94461   0.37999   1.000
    O90     O    0.78598   0.44461   0.37999   1.000
    O91     O    0.78598   0.94461   0.37999   1.000
    O92     O    0.43749   0.20381   0.02468   1.000
    O93     O    0.43749   0.70380   0.02468   1.000
    O94     O    0.93749   0.20381   0.02468   1.000
    O95     O    0.93749   0.70380   0.02468   1.000
loop_
    _geom_bond_atom_site_label_1
    _geom_bond_atom_site_label_2
    _geom_bond_distance
    _geom_bond_site_symmetry_2
    _ccdc_geom_bond_type
    O95    C35       1.28957      .   S
    O94    C34       1.28955      .   S
    O93    C33       1.28958      .   S
    O92    C32       1.28954      .   S
    O80    C32       1.26081      .   S
    O81    C33       1.26082      .   S
    O82    C34       1.26081      .   S
    O83    C35       1.26082      .   S
    O71    C31       1.26739      .   S
    O68    C28       1.26739      .   S
    O69    C29       1.26738      .   S
    O70    C30       1.26806      .   S
    O75    C31       1.26831      .   S
    O74    C30       1.26866      .   S
    O73    C29       1.26833      .   S
    O72    C28       1.26831      .   S
    C37    O89       1.26860      .   S
    C37    O85       1.26807      .   S
    C39    O91       1.26860      .   S
    C39    O87       1.26807      .   S
    C38    O90       1.26860      .   S
    C38    O86       1.26807      .   S
    C36    O88       1.26859      .   S
    C36    O84       1.26808      .   S
    C5     O65       1.26087  1_455   S
    C5     O77       1.28962      .   S
    C4     O64       1.26080  1_455   S
    C4     O76       1.28954      .   S
    C6     O78       1.28803      .   S
    C6     O66       1.26079      .   S
    C7     O67       1.26082      .   S
    C7     O79       1.28955      .   S
    O45    C9        1.28953      .   S
    O47    C11       1.28956      .   S
    O46    C10       1.28955      .   S
    O22    C8        1.28955      .   S
    O43    C11       1.20507  1_455   S
    O42    C10       1.20507  1_455   S
    O41    C9        1.26079      .   S
    O40    C8        1.26081      .   S
    O54    C26       1.26916      .   S
    O55    C27       1.26795      .   S
    O53    C25       1.26795      .   S
    O52    C24       1.26794      .   S
    O59    C27       1.26861      .   S
    O58    C26       1.26860      .   S
    O57    C25       1.26860      .   S
    O56    C24       1.26860      .   S
    C12    O18       1.26858      .   S
    C12    O44       1.26795      .   S
    C13    O19       1.26857      .   S
    C13    O15       1.26795      .   S
    C14    O20       1.26859      .   S
    C14    O16       1.26794      .   S
    C0     O21       1.26859      .   S
    C0     O17       1.26795      .   S
    C23    O51       1.26084      .   S
    C23    O63       1.28956      .   S
    C2     O49       1.26070      .   S
    C2     O61       1.28956      .   S
    C3     O50       1.26079      .   S
    C3     O62       1.28953      .   S
    C1     O48       1.26079      .   S
    C1     O60       1.28953      .   S
