# CIF file generated by openbabel 2.4.90, see http://openbabel.sf.net
data_I
_chemical_name_common ''
_cell_length_a 11.272
_cell_length_b 24.217
_cell_length_c 23.214
_cell_angle_alpha 98.079
_cell_angle_beta 90.007
_cell_angle_gamma 89.999
_space_group_name_H-M_alt 'P 1'
_space_group_name_Hall 'P 1'
loop_
    _symmetry_equiv_pos_as_xyz
    x,y,z
loop_
    _atom_site_label
    _atom_site_type_symbol
    _atom_site_fract_x
    _atom_site_fract_y
    _atom_site_fract_z
    _atom_site_occupancy
    Ca0     Ca   0.14597   0.94699   0.45459   1.000
    Ca1     Ca   0.64597   0.44700   0.45459   1.000
    Ca2     Ca   0.64597   0.94699   0.45459   1.000
    Ca3     Ca   0.39598   0.30299   0.04540   1.000
    Ca4     Ca   0.39598   0.80299   0.04540   1.000
    Ca5     Ca   0.89598   0.30299   0.04540   1.000
    Ca6     Ca   0.89598   0.80299   0.04540   1.000
    Ca7     Ca   0.35402   0.05301   0.54538   1.000
    Ca8     Ca   0.35402   0.55300   0.54538   1.000
    Ca9     Ca   0.85402   0.05301   0.54538   1.000
    Ca10    Ca   0.85403   0.55300   0.54538   1.000
    Ca11    Ca   0.10401   0.19701   0.95458   1.000
    Ca12    Ca   0.10402   0.69701   0.95458   1.000
    Ca13    Ca   0.60401   0.19701   0.95458   1.000
    Ca14    Ca   0.60402   0.69701   0.95458   1.000
    Ca15    Ca   0.14597   0.44700   0.45459   1.000
    C16     C    0.85723   0.69773   0.86343   1.000
    C17     C    0.14627   0.33078   0.96791   1.000
    C18     C    0.14627   0.83078   0.96790   1.000
    C19     C    0.64628   0.33078   0.96791   1.000
    C20     C    0.10369   0.08077   0.46791   1.000
    C21     C    0.10369   0.58077   0.46790   1.000
    C22     C    0.60369   0.08077   0.46791   1.000
    C23     C    0.60369   0.58077   0.46791   1.000
    C24     C    0.39630   0.41923   0.53206   1.000
    C25     C    0.39630   0.91923   0.53206   1.000
    C26     C    0.89630   0.41923   0.53206   1.000
    C27     C    0.89630   0.91923   0.53207   1.000
    C28     C    0.35722   0.19774   0.86343   1.000
    C29     C    0.35723   0.69773   0.86343   1.000
    C30     C    0.85723   0.19774   0.86343   1.000
    O31     O    0.26558   0.69919   0.89527   1.000
    O32     O    0.76558   0.19920   0.89527   1.000
    O33     O    0.76558   0.69919   0.89527   1.000
    O34     O    0.46398   0.19462   0.87998   1.000
    O35     O    0.46398   0.69462   0.87998   1.000
    O36     O    0.96398   0.19462   0.87998   1.000
    O37     O    0.96398   0.69462   0.87998   1.000
    O38     O    0.31252   0.45381   0.52468   1.000
    C39     C    0.64628   0.83078   0.96790   1.000
    C40     C    0.10727   0.05227   0.63653   1.000
    C41     C    0.10727   0.55227   0.63653   1.000
    C42     C    0.60727   0.05227   0.63653   1.000
    C43     C    0.60727   0.55227   0.63653   1.000
    C44     C    0.14277   0.30227   0.13650   1.000
    C45     C    0.14277   0.80226   0.13650   1.000
    C46     C    0.64277   0.30227   0.13655   1.000
    C47     C    0.64277   0.80226   0.13650   1.000
    C48     C    0.35372   0.16922   0.03207   1.000
    C49     C    0.35372   0.66922   0.03207   1.000
    C50     C    0.85372   0.16922   0.03207   1.000
    C51     C    0.85372   0.66922   0.03207   1.000
    C52     C    0.39272   0.44773   0.36344   1.000
    C53     C    0.39273   0.94773   0.36344   1.000
    C54     C    0.89273   0.44773   0.36344   1.000
    C55     C    0.89273   0.94773   0.36344   1.000
    O56     O    0.50509   0.42815   0.52474   1.000
    O57     O    0.50509   0.92815   0.52474   1.000
    O58     O    0.00000   0.42815   0.52474   1.000
    O59     O    0.00000   0.92815   0.52474   1.000
    O60     O    0.26557   0.19919   0.89527   1.000
    O61     O    0.31252   0.95381   0.52468   1.000
    O62     O    0.81252   0.45381   0.52468   1.000
    O63     O    0.81252   0.95381   0.52468   1.000
    O64     O    0.25506   0.32186   0.97523   1.000
    O65     O    0.25506   0.82186   0.97520   1.000
    O66     O    0.75506   0.32186   0.97523   1.000
    O67     O    0.75506   0.82186   0.97524   1.000
    O68     O    0.01560   0.05082   0.60469   1.000
    O69     O    0.01561   0.55082   0.60469   1.000
    O70     O    0.51560   0.05082   0.60460   1.000
    O71     O    0.51560   0.55082   0.60469   1.000
    O72     O    0.21401   0.05539   0.61998   1.000
    O73     O    0.21402   0.55539   0.61998   1.000
    O74     O    0.71401   0.05539   0.61998   1.000
    O75     O    0.71402   0.55539   0.61998   1.000
    O76     O    0.06250   0.29620   0.97529   1.000
    O77     O    0.06250   0.79619   0.97529   1.000
    O78     O    0.56250   0.29620   0.97529   1.000
    O79     O    0.56250   0.79619   0.97529   1.000
    O80     O    0.99490   0.07185   0.47523   1.000
    O81     O    0.99490   0.57185   0.47523   1.000
    O82     O    0.49491   0.07185   0.47523   1.000
    O83     O    0.49491   0.57185   0.47523   1.000
    O84     O    0.23442   0.30081   0.10470   1.000
    O85     O    0.23442   0.80081   0.10470   1.000
    O86     O    0.73442   0.30081   0.10470   1.000
    O87     O    0.73442   0.80081   0.10470   1.000
    O88     O    0.03601   0.30538   0.11999   1.000
    O89     O    0.03602   0.80538   0.11999   1.000
    O90     O    0.53602   0.30538   0.11999   1.000
    O91     O    0.53602   0.80538   0.11999   1.000
    O92     O    0.18747   0.04619   0.47529   1.000
    O93     O    0.18747   0.54619   0.47529   1.000
    O94     O    0.68747   0.04619   0.47500   1.000
    O95     O    0.68747   0.54619   0.47529   1.000
    O96     O    0.24493   0.17814   0.02474   1.000
    O97     O    0.24493   0.67814   0.02474   1.000
    O98     O    0.74493   0.17815   0.02474   1.000
    O99     O    0.74493   0.67814   0.02474   1.000
    O100    O    0.48439   0.44918   0.39529   1.000
    O101    O    0.48439   0.94918   0.39529   1.000
    O102    O    0.98439   0.44918   0.39529   1.000
    O103    O    0.98439   0.94918   0.39529   1.000
    O104    O    0.28598   0.44461   0.37999   1.000
    O105    O    0.28598   0.94461   0.37999   1.000
    O106    O    0.78598   0.44461   0.37999   1.000
    O107    O    0.78598   0.94461   0.37999   1.000
    O108    O    0.43749   0.20381   0.02468   1.000
    O109    O    0.43749   0.70380   0.02468   1.000
    O110    O    0.93749   0.20381   0.02468   1.000
    O111    O    0.93749   0.70380   0.02468   1.000
    Ts112   Ts   0.15150   0.91280   0.44559   1.000
    Ts113   Ts   0.65150   0.41280   0.44559   1.000
    Ts114   Ts   0.65150   0.91280   0.44556   1.000
    Ts115   Ts   0.40150   0.33719   0.05441   1.000
    Ts116   Ts   0.40150   0.83719   0.05441   1.000
    Ts117   Ts   0.90150   0.33719   0.05441   1.000
    Ts118   Ts   0.90150   0.83719   0.05441   1.000
    Ts119   Ts   0.34849   0.08720   0.55439   1.000
    Ts120   Ts   0.34850   0.58720   0.55439   1.000
    Ts121   Ts   0.84849   0.08720   0.55439   1.000
    Ts122   Ts   0.84850   0.58720   0.55439   1.000
    Ts123   Ts   0.09850   0.16281   0.94557   1.000
    Ts124   Ts   0.09850   0.66281   0.94557   1.000
    Ts125   Ts   0.59850   0.16281   0.94557   1.000
    Ts126   Ts   0.59850   0.66281   0.94557   1.000
    Ts127   Ts   0.15150   0.41280   0.44559   1.000
    Og128   Og   0.85026   0.69825   0.84200   1.000
    Og129   Og   0.13460   0.34887   0.96116   1.000
    Og130   Og   0.13461   0.84886   0.96113   1.000
    Og131   Og   0.63460   0.34887   0.96116   1.000
    Og132   Og   0.11536   0.09885   0.46116   1.000
    Og133   Og   0.11536   0.59885   0.46115   1.000
    Og134   Og   0.61536   0.09885   0.46116   1.000
    Og135   Og   0.61536   0.59885   0.46116   1.000
    Og136   Og   0.38463   0.40115   0.53881   1.000
    Og137   Og   0.38464   0.90115   0.53881   1.000
    Og138   Og   0.88463   0.40115   0.53881   1.000
    Og139   Og   0.88464   0.90115   0.53882   1.000
    Og140   Og   0.35026   0.19826   0.84200   1.000
    Og141   Og   0.35026   0.69825   0.84200   1.000
    Og142   Og   0.85026   0.19826   0.84200   1.000
    Og143   Og   0.63461   0.84886   0.96116   1.000
    Og144   Og   0.10031   0.05175   0.65796   1.000
    Og145   Og   0.10032   0.55175   0.65796   1.000
    Og146   Og   0.60031   0.05175   0.65796   1.000
    Og147   Og   0.60031   0.55175   0.65796   1.000
    Og148   Og   0.14973   0.30175   0.15794   1.000
    Og149   Og   0.14974   0.80174   0.15794   1.000
    Og150   Og   0.64973   0.30175   0.15798   1.000
    Og151   Og   0.64974   0.80174   0.15794   1.000
    Og152   Og   0.36539   0.15114   0.03881   1.000
    Og153   Og   0.36539   0.65114   0.03881   1.000
    Og154   Og   0.86539   0.15114   0.03881   1.000
    Og155   Og   0.86539   0.65114   0.03881   1.000
    Og156   Og   0.39968   0.44825   0.34199   1.000
    Og157   Og   0.39968   0.94825   0.34199   1.000
    Og158   Og   0.89968   0.44825   0.34199   1.000
    Og159   Og   0.89968   0.94825   0.34199   1.000
loop_
    _geom_bond_atom_site_label_1
    _geom_bond_atom_site_label_2
    _geom_bond_distance
    _geom_bond_site_symmetry_2
    _ccdc_geom_bond_type
    O111   C51       1.28957      .   S
    O110   C50       1.28955      .   S
    O109   C49       1.28958      .   S
    O108   C48       1.28954      .   S
    O96    C48       1.26081      .   S
    O97    C49       1.26082      .   S
    O98    C50       1.26081      .   S
    O99    C51       1.26082      .   S
    Ca3    O84       2.28811      .   S
    Ca3    O90       2.33758      .   S
    Ca4    O85       2.28811      .   S
    Ca4    O91       2.33759      .   S
    Ca5    O86       2.28811      .   S
    Ca5    O88       2.33757  1_655   S
    Ca6    O87       2.28811      .   S
    Ca6    O89       2.33757  1_655   S
    O87    C47       1.26739      .   S
    O84    C44       1.26739      .   S
    O85    C45       1.26738      .   S
    O86    C46       1.26806      .   S
    O91    C47       1.26831      .   S
    O90    C46       1.26866      .   S
    O89    C45       1.26833      .   S
    O88    C44       1.26831      .   S
    C53    O105      1.26860      .   S
    C53    O101      1.26807      .   S
    C55    O107      1.26860      .   S
    C55    O103      1.26807      .   S
    C54    O106      1.26860      .   S
    C54    O102      1.26807      .   S
    C52    O104      1.26859      .   S
    C52    O100      1.26808      .   S
    O106   Ca1       2.33785      .   S
    O105   Ca0       2.33784      .   S
    O104   Ca15      2.33784      .   S
    O107   Ca2       2.33784      .   S
    O102   Ca15      2.28800  1_655   S
    O103   Ca0       2.28800  1_655   S
    O100   Ca1       2.28801      .   S
    O101   Ca2       2.28802      .   S
    C21    O81       1.26087  1_455   S
    C21    O93       1.28962      .   S
    C20    O80       1.26080  1_455   S
    C20    O92       1.28954      .   S
    C22    O94       1.28803      .   S
    C22    O82       1.26079      .   S
    C23    O83       1.26082      .   S
    C23    O95       1.28955      .   S
    O61    C25       1.28953      .   S
    O63    C27       1.28956      .   S
    O62    C26       1.28955      .   S
    O38    C24       1.28955      .   S
    O59    C27       1.20507  1_455   S
    O58    C26       1.20507  1_455   S
    O57    C25       1.26079      .   S
    O56    C24       1.26081      .   S
    Ca7    O70       2.28687      .   S
    Ca7    O72       2.33785      .   S
    Ca10   O69       2.28812  1_655   S
    Ca10   O75       2.33785      .   S
    Ca9    O68       2.28813  1_655   S
    Ca9    O74       2.33785      .   S
    Ca8    O71       2.28813      .   S
    Ca8    O73       2.33785      .   S
    O70    C42       1.26916      .   S
    O71    C43       1.26795      .   S
    O69    C41       1.26795      .   S
    O68    C40       1.26794      .   S
    O75    C43       1.26861      .   S
    O74    C42       1.26860      .   S
    O73    C41       1.26860      .   S
    O72    C40       1.26860      .   S
    C28    O34       1.26858      .   S
    C28    O60       1.26795      .   S
    C29    O35       1.26857      .   S
    C29    O31       1.26795      .   S
    C30    O36       1.26859      .   S
    C30    O32       1.26794      .   S
    C16    O37       1.26859      .   S
    C16    O33       1.26795      .   S
    O35    Ca14      2.33777      .   S
    O36    Ca11      2.33776  1_655   S
    O37    Ca12      2.33776  1_655   S
    O34    Ca13      2.33778      .   S
    O32    Ca13      2.28823      .   S
    O31    Ca12      2.28821      .   S
    O60    Ca11      2.28822      .   S
    O33    Ca14      2.28821      .   S
    C39    O67       1.26084      .   S
    C39    O79       1.28956      .   S
    C18    O65       1.26070      .   S
    C18    O77       1.28956      .   S
    C19    O66       1.26079      .   S
    C19    O78       1.28953      .   S
    C17    O64       1.26079      .   S
    C17    O76       1.28953      .   S
    O56    Ca1       2.36463      .   S
    O57    Ca2       2.36466      .   S
    O58    Ca15      2.40355      .   S
    O59    Ca0       2.40357      .   S
    O38    Ca15      2.47442      .   S
    O38    Ca8       2.42801      .   S
    O61    Ca0       2.47442      .   S
    O61    Ca7       2.42814  1_565   S
    O62    Ca1       2.47443      .   S
    O62    Ca10      2.42801      .   S
    O63    Ca2       2.47443      .   S
    O63    Ca9       2.42814  1_565   S
    O64    Ca3       2.36510  1_556   S
    O65    Ca4       2.36561  1_556   S
    O66    Ca5       2.36510  1_556   S
    O67    Ca6       2.36495  1_556   S
    O76    Ca5       2.47476  1_456   S
    O76    Ca11      2.42803      .   S
    O77    Ca6       2.47475  1_456   S
    O77    Ca12      2.42798      .   S
    O78    Ca3       2.47477  1_556   S
    O78    Ca13      2.42803      .   S
    O79    Ca4       2.47477  1_556   S
    O79    Ca14      2.42798      .   S
    O80    Ca9       2.36464      .   S
    O81    Ca10      2.36461      .   S
    O82    Ca7       2.36467      .   S
    O83    Ca8       2.36465      .   S
    O92    Ca0       2.42816  1_545   S
    O92    Ca7       2.47443      .   S
    O93    Ca15      2.42803      .   S
    O93    Ca8       2.47444      .   S
    O94    Ca2       2.42774  1_545   S
    O94    Ca9       2.47881      .   S
    O95    Ca1       2.42803      .   S
    O95    Ca10      2.47444      .   S
    O96    Ca11      2.36496  1_554   S
    O97    Ca12      2.36494  1_554   S
    O98    Ca13      2.36495  1_554   S
    O99    Ca14      2.36495  1_554   S
    O108   Ca3       2.42799      .   S
    O108   Ca13      2.47466  1_554   S
    O109   Ca4       2.42801      .   S
    O109   Ca14      2.47465  1_554   S
    O110   Ca5       2.42799      .   S
    O110   Ca11      2.47464  1_654   S
    O111   Ca6       2.42801      .   S
    O111   Ca12      2.47465  1_654   S
    Ca0    Ts112     0.82752      .   S
    Ca1    Ts113     0.82751      .   S
    Ca2    Ts114     0.82759      .   S
    Ca3    Ts115     0.82747      .   S
    Ca4    Ts116     0.82747      .   S
    Ca5    Ts117     0.82747      .   S
    Ca6    Ts118     0.82747      .   S
    Ca7    Ts119     0.82752      .   S
    Ca8    Ts120     0.82751      .   S
    Ca9    Ts121     0.82751      .   S
    Ca10   Ts122     0.82750      .   S
    Ca11   Ts123     0.82748      .   S
    Ca12   Ts124     0.82748      .   S
    Ca13   Ts125     0.82748      .   S
    Ca14   Ts126     0.82748      .   S
    Ca15   Ts127     0.82751      .   S
    C16    Og128     0.50551      .   S
    C17    Og129     0.50287      .   S
    C18    Og130     0.50310      .   S
    C19    Og131     0.50287      .   S
    C20    Og132     0.50284      .   S
    C21    Og133     0.50280      .   S
    C22    Og134     0.50287      .   S
    C23    Og135     0.50285      .   S
    C24    Og136     0.50283      .   S
    C25    Og137     0.50287      .   S
    C26    Og138     0.50285      .   S
    C27    Og139     0.50285      .   S
    C28    Og140     0.50552      .   S
    C29    Og141     0.50552      .   S
    C30    Og142     0.50552      .   S
    C39    Og143     0.50284      .   S
    C40    Og144     0.50552      .   S
    C41    Og145     0.50552      .   S
    C42    Og146     0.50552      .   S
    C43    Og147     0.50552      .   S
    C44    Og148     0.50582      .   S
    C45    Og149     0.50582      .   S
    C46    Og150     0.50545      .   S
    C47    Og151     0.50583      .   S
    C48    Og152     0.50285      .   S
    C49    Og153     0.50283      .   S
    C50    Og154     0.50284      .   S
    C51    Og155     0.50283      .   S
    C52    Og156     0.50591      .   S
    C53    Og157     0.50591      .   S
    C54    Og158     0.50591      .   S
    C55    Og159     0.50591      .   S
