# CIF file generated by openbabel 2.4.90, see http://openbabel.sf.net
data_I
_chemical_name_common ''
_cell_length_a 11.272
_cell_length_b 24.217
_cell_length_c 23.214
_cell_angle_alpha 98.079
_cell_angle_beta 90.007
_cell_angle_gamma 89.999
_space_group_name_H-M_alt 'P 1'
_space_group_name_Hall 'P 1'
loop_
    _symmetry_equiv_pos_as_xyz
    x,y,z
loop_
    _atom_site_label
    _atom_site_type_symbol
    _atom_site_fract_x
    _atom_site_fract_y
    _atom_site_fract_z
    _atom_site_occupancy
    Ca0     Ca   0.14597   0.94699   0.45459   1.000
    Ca1     Ca   0.64597   0.44700   0.45459   1.000
    Ca2     Ca   0.64597   0.94699   0.45459   1.000
    Ca3     Ca   0.39598   0.30299   0.04540   1.000
    Ca4     Ca   0.39598   0.80299   0.04540   1.000
    Ca5     Ca   0.89598   0.30299   0.04540   1.000
    Ca6     Ca   0.89598   0.80299   0.04540   1.000
    Ca7     Ca   0.35402   0.05301   0.54538   1.000
    Ca8     Ca   0.35402   0.55300   0.54538   1.000
    Ca9     Ca   0.85402   0.05301   0.54538   1.000
    Ca10    Ca   0.85403   0.55300   0.54538   1.000
    Ca11    Ca   0.10401   0.19701   0.95458   1.000
    Ca12    Ca   0.10402   0.69701   0.95458   1.000
    Ca13    Ca   0.60401   0.19701   0.95458   1.000
    Ca14    Ca   0.60402   0.69701   0.95458   1.000
    Ca15    Ca   0.14597   0.44700   0.45459   1.000
