# CIF file generated by openbabel 2.4.90, see http://openbabel.sf.net
data_I
_chemical_name_common ''
_cell_length_a 11.272
_cell_length_b 24.217
_cell_length_c 23.214
_cell_angle_alpha 98.079
_cell_angle_beta 90.007
_cell_angle_gamma 89.999
_space_group_name_H-M_alt 'P 1'
_space_group_name_Hall 'P 1'
loop_
    _symmetry_equiv_pos_as_xyz
    x,y,z
loop_
    _atom_site_label
    _atom_site_type_symbol
    _atom_site_fract_x
    _atom_site_fract_y
    _atom_site_fract_z
    _atom_site_occupancy
    Zr0     Zr   0.14597   0.44700   0.45459   1.000
    Zr1     Zr   0.14597   0.94699   0.45459   1.000
    Zr2     Zr   0.64597   0.44700   0.45459   1.000
    Zr3     Zr   0.64597   0.94699   0.45459   1.000
    Zr4     Zr   0.39598   0.30299   0.04540   1.000
    Zr5     Zr   0.39598   0.80299   0.04540   1.000
    Zr6     Zr   0.89598   0.30299   0.04540   1.000
    Zr7     Zr   0.89598   0.80299   0.04540   1.000
    Zr8     Zr   0.35402   0.05301   0.54538   1.000
    Zr9     Zr   0.35402   0.55300   0.54538   1.000
    Zr10    Zr   0.85402   0.05301   0.54538   1.000
    Zr11    Zr   0.85403   0.55300   0.54538   1.000
    Zr12    Zr   0.10401   0.19701   0.95458   1.000
    Zr13    Zr   0.10402   0.69701   0.95458   1.000
    Zr14    Zr   0.60401   0.19701   0.95458   1.000
    Zr15    Zr   0.60402   0.69701   0.95458   1.000
    N16     N    0.55505   0.94445   0.10286   1.000
    O17     O    0.40839   0.87993   0.06567   1.000
    N18     N    0.80508   0.80553   0.39711   1.000
    O19     O    0.65842   0.87005   0.43427   1.000
    N20     N    0.30507   0.30554   0.39713   1.000
    O21     O    0.15841   0.37005   0.43433   1.000
    N22     N    0.69492   0.19447   0.60282   1.000
    O23     O    0.84158   0.12995   0.56565   1.000
    N24     N    0.80508   0.30554   0.39713   1.000
    O25     O    0.65841   0.37005   0.43433   1.000
    N26     N    0.05505   0.44445   0.10283   1.000
    O27     O    0.90839   0.37993   0.06567   1.000
    N28     N    0.19493   0.69446   0.60282   1.000
    O29     O    0.34159   0.62995   0.56565   1.000
    N30     N    0.30508   0.80553   0.39711   1.000
    O31     O    0.15842   0.87005   0.43433   1.000
    N32     N    0.55505   0.44445   0.10283   1.000
    O33     O    0.40839   0.37993   0.06567   1.000
    N34     N    0.44495   0.55555   0.89711   1.000
    O35     O    0.59161   0.62007   0.93431   1.000
    N36     N    0.69493   0.69446   0.60284   1.000
    O37     O    0.84159   0.62995   0.56565   1.000
    N38     N    0.19492   0.19447   0.60282   1.000
    O39     O    0.34158   0.12995   0.56565   1.000
    N40     N    0.05505   0.94445   0.10286   1.000
    O41     O    0.90839   0.87993   0.06567   1.000
    N42     N    0.94495   0.05555   0.89711   1.000
    O43     O    0.09161   0.12007   0.93431   1.000
    N44     N    0.44495   0.05555   0.89711   1.000
    O45     O    0.59161   0.12007   0.93431   1.000
    N46     N    0.94495   0.55555   0.89711   1.000
    O47     O    0.09161   0.62007   0.93431   1.000
    C48     C    0.36226   0.69718   0.87956   1.000
    O49     O    0.44813   0.69650   0.89842   1.000
    O50     O    0.34640   0.69793   0.83252   1.000
    O51     O    0.27353   0.69764   0.90224   1.000
    C52     C    0.34538   0.68372   0.02716   1.000
    O53     O    0.37017   0.64338   0.04169   1.000
    O54     O    0.25993   0.68565   0.00841   1.000
    O55     O    0.38106   0.71856   0.03110   1.000
    O56     O    0.43307   0.69206   0.00840   1.000
    C57     C    0.13774   0.80282   0.12040   1.000
    O58     O    0.05187   0.80350   0.10155   1.000
    O59     O    0.15360   0.80207   0.16744   1.000
    O60     O    0.22647   0.80236   0.09772   1.000
    C61     C    0.84538   0.68372   0.02716   1.000
    O62     O    0.88106   0.71856   0.03110   1.000
    O63     O    0.93307   0.69206   0.00840   1.000
    O64     O    0.75993   0.68565   0.00841   1.000
    O65     O    0.87017   0.64338   0.04170   1.000
    C66     C    0.63774   0.80282   0.12040   1.000
    O67     O    0.65360   0.80207   0.16744   1.000
    O68     O    0.72647   0.80236   0.09772   1.000
    O69     O    0.55187   0.80350   0.10155   1.000
    C70     C    0.15461   0.81628   0.97280   1.000
    O71     O    0.06693   0.80793   0.99157   1.000
    O72     O    0.11894   0.78144   0.96887   1.000
    O73     O    0.12982   0.85662   0.95823   1.000
    O74     O    0.24007   0.81435   0.99155   1.000
    C75     C    0.86226   0.69718   0.87956   1.000
    O76     O    0.94813   0.69650   0.89842   1.000
    O77     O    0.84640   0.69793   0.83252   1.000
    O78     O    0.77353   0.69764   0.90224   1.000
    C79     C    0.65461   0.81628   0.97281   1.000
    O80     O    0.56693   0.80793   0.99158   1.000
    O81     O    0.61894   0.78144   0.96887   1.000
    O82     O    0.74007   0.81435   0.99157   1.000
    O83     O    0.62983   0.85662   0.95825   1.000
    C84     C    0.59536   0.56627   0.47281   1.000
    O85     O    0.62014   0.60661   0.45825   1.000
    O86     O    0.50991   0.56435   0.49156   1.000
    O87     O    0.63104   0.53143   0.46887   1.000
    O88     O    0.68305   0.55793   0.49157   1.000
    C89     C    0.88770   0.44718   0.37957   1.000
    O90     O    0.90355   0.44793   0.33253   1.000
    O91     O    0.97644   0.44763   0.40226   1.000
    O92     O    0.80184   0.44649   0.39843   1.000
    C93     C    0.11230   0.55283   0.62040   1.000
    O94     O    0.02356   0.55237   0.59772   1.000
    O95     O    0.19816   0.55351   0.60154   1.000
    O96     O    0.09645   0.55207   0.66743   1.000
    C97     C    0.40464   0.43373   0.52716   1.000
    O98     O    0.49008   0.43565   0.50841   1.000
    O99     O    0.31694   0.44207   0.50840   1.000
    O100    O    0.36896   0.46857   0.53110   1.000
    O101    O    0.37985   0.39339   0.54172   1.000
    C102    C    0.38770   0.44717   0.37957   1.000
    O103    O    0.47644   0.44763   0.40226   1.000
    O104    O    0.40355   0.44793   0.33253   1.000
    O105    O    0.30184   0.44649   0.39843   1.000
    C106    C    0.09536   0.56627   0.47281   1.000
    O107    O    0.00991   0.56435   0.49156   1.000
    O108    O    0.13104   0.53143   0.46887   1.000
    O109    O    0.18305   0.55793   0.49157   1.000
    O110    O    0.12014   0.60661   0.45824   1.000
    C111    C    0.61230   0.55283   0.62040   1.000
    O112    O    0.69816   0.55351   0.60154   1.000
    O113    O    0.59645   0.55207   0.66743   1.000
    O114    O    0.52356   0.55237   0.59772   1.000
    C115    C    0.90294   0.43373   0.52716   1.000
    O116    O    0.87901   0.39339   0.54172   1.000
    O117    O    0.81609   0.44207   0.50840   1.000
    O118    O    0.86811   0.46857   0.53110   1.000
    O119    O    0.98796   0.43565   0.50841   1.000
    C120    C    0.59536   0.06627   0.47271   1.000
    O121    O    0.50991   0.06435   0.49151   1.000
    O122    O    0.62014   0.10661   0.45820   1.000
    O123    O    0.63104   0.03143   0.46875   1.000
    O124    O    0.68305   0.05793   0.49145   1.000
    C125    C    0.11229   0.05283   0.62040   1.000
    O126    O    0.19816   0.05351   0.60154   1.000
    O127    O    0.09644   0.05208   0.66743   1.000
    O128    O    0.02355   0.05237   0.59772   1.000
    C129    C    0.61230   0.05283   0.62037   1.000
    O130    O    0.69816   0.05351   0.60153   1.000
    O131    O    0.52355   0.05237   0.59768   1.000
    O132    O    0.59644   0.05208   0.66742   1.000
    C133    C    0.88770   0.94717   0.37957   1.000
    O134    O    0.97644   0.94763   0.40226   1.000
    O135    O    0.90356   0.94792   0.33253   1.000
    O136    O    0.80184   0.94649   0.39843   1.000
    C137    C    0.38770   0.94717   0.37957   1.000
    O138    O    0.40355   0.94792   0.33253   1.000
    O139    O    0.30184   0.94649   0.39843   1.000
    O140    O    0.47644   0.94763   0.40226   1.000
    C141    C    0.09536   0.06627   0.47281   1.000
    O142    O    0.13104   0.03143   0.46887   1.000
    O143    O    0.18305   0.05794   0.49157   1.000
    O144    O    0.00991   0.06435   0.49156   1.000
    O145    O    0.12014   0.10661   0.45825   1.000
    C146    C    0.40464   0.93373   0.52716   1.000
    O147    O    0.31694   0.94207   0.50840   1.000
    O148    O    0.36896   0.96857   0.53110   1.000
    O149    O    0.37986   0.89339   0.54172   1.000
    O150    O    0.49009   0.93565   0.50841   1.000
    C151    C    0.90294   0.93373   0.52716   1.000
    O152    O    0.81610   0.94207   0.50840   1.000
    O153    O    0.86811   0.96857   0.53110   1.000
    O154    O    0.87901   0.89339   0.54172   1.000
    O155    O    0.98796   0.93565   0.50841   1.000
    C156    C    0.13773   0.30282   0.12040   1.000
    O157    O    0.22647   0.30236   0.09772   1.000
    O158    O    0.15360   0.30207   0.16743   1.000
    O159    O    0.05187   0.30350   0.10155   1.000
    C160    C    0.86226   0.19718   0.87956   1.000
    O161    O    0.84640   0.19794   0.83252   1.000
    O162    O    0.94813   0.19650   0.89842   1.000
    O163    O    0.77353   0.19764   0.90224   1.000
    C164    C    0.63773   0.30282   0.12041   1.000
    O165    O    0.72647   0.30236   0.09773   1.000
    O166    O    0.65360   0.30207   0.16745   1.000
    O167    O    0.55187   0.30350   0.10155   1.000
    C168    C    0.34538   0.18373   0.02716   1.000
    O169    O    0.38106   0.21856   0.03110   1.000
    O170    O    0.43307   0.19207   0.00840   1.000
    O171    O    0.37017   0.14338   0.04171   1.000
    O172    O    0.25993   0.18565   0.00841   1.000
    C173    C    0.84538   0.18373   0.02716   1.000
    O174    O    0.87017   0.14338   0.04171   1.000
    O175    O    0.75993   0.18565   0.00841   1.000
    O176    O    0.88106   0.21856   0.03110   1.000
    O177    O    0.93307   0.19207   0.00840   1.000
    C178    C    0.36226   0.19718   0.87956   1.000
    O179    O    0.34640   0.19794   0.83252   1.000
    O180    O    0.27353   0.19764   0.90224   1.000
    O181    O    0.44813   0.19650   0.89842   1.000
    C182    C    0.65461   0.31628   0.97281   1.000
    O183    O    0.56693   0.30794   0.99158   1.000
    O184    O    0.61893   0.28144   0.96887   1.000
    O185    O    0.62983   0.35662   0.95825   1.000
    O186    O    0.74007   0.31435   0.99156   1.000
    C187    C    0.15461   0.31628   0.97281   1.000
    O188    O    0.06693   0.30794   0.99158   1.000
    O189    O    0.11893   0.28144   0.96887   1.000
    O190    O    0.12982   0.35662   0.95825   1.000
    O191    O    0.24007   0.31435   0.99156   1.000
loop_
    _geom_bond_atom_site_label_1
    _geom_bond_atom_site_label_2
    _geom_bond_distance
    _geom_bond_site_symmetry_2
    _ccdc_geom_bond_type
    N16    O17       2.35377      .   S
    Zr5    O17       1.86180      .   S
    N18    O19       2.35363      .   S
    Zr3    O19       1.86207      .   S
    N20    O21       2.35387      .   S
    Zr0    O21       1.86190      .   S
    N22    O23       2.35374      .   S
    Zr10   O23       1.86190      .   S
    N24    O25       2.35388      .   S
    Zr2    O25       1.86190      .   S
    N26    O27       2.35355  1_455   S
    Zr6    O27       1.86180      .   S
    N28    O29       2.35374      .   S
    Zr9    O29       1.86190      .   S
    N30    O31       2.35401      .   S
    Zr1    O31       1.86192      .   S
    N32    O33       2.35355      .   S
    Zr4    O33       1.86180      .   S
    N34    O35       2.35378      .   S
    Zr15   O35       1.86184      .   S
    N36    O37       2.35383      .   S
    Zr11   O37       1.86188      .   S
    N38    O39       2.35374      .   S
    Zr8    O39       1.86192      .   S
    N40    O41       2.35377  1_455   S
    Zr7    O41       1.86180      .   S
    N42    O43       2.35376  1_655   S
    Zr12   O43       1.86184      .   S
    N44    O45       2.35377      .   S
    Zr14   O45       1.86184      .   S
    N46    O47       2.35377  1_655   S
    Zr13   O47       1.86184      .   S
    C48    O49       1.06336      .   S
    Zr15   O49       2.18684      .   S
    C48    O50       1.10918      .   S
    N28    O50       5.58811      .   S
    C48    O51       1.12971      .   S
    Zr13   O51       2.26563      .   S
    C52    O53       1.11313      .   S
    N32    O53       5.61111      .   S
    C52    O54       1.06071      .   S
    Zr13   O54       2.19591  1_556   S
    C52    O55       0.92746      .   S
    Zr5    O55       2.03184      .   S
    C52    O56       1.11013      .   S
    Zr15   O56       2.30884  1_556   S
    C57    O58       1.06327      .   S
    Zr7    O58       2.18663  1_655   S
    C57    O59       1.10918      .   S
    N30    O59       5.58766      .   S
    C57    O60       1.12961      .   S
    Zr5    O60       2.26548      .   S
    C61    O62       0.92746      .   S
    Zr7    O62       2.03184      .   S
    C61    O63       1.11013      .   S
    Zr13   O63       2.30883  1_456   S
    C61    O64       1.06071      .   S
    Zr15   O64       2.19591  1_556   S
    C61    O65       1.11318      .   S
    N26    O65       5.61107  1_455   S
    C66    O67       1.10918      .   S
    N18    O67       5.58766      .   S
    C66    O68       1.12962      .   S
    Zr7    O68       2.26548      .   S
    C66    O69       1.06327      .   S
    Zr5    O69       2.18664      .   S
    C70    O71       1.11019      .   S
    Zr7    O71       2.30896  1_654   S
    C70    O72       0.92745      .   S
    Zr13   O72       2.03180      .   S
    C70    O73       1.11348      .   S
    N42    O73       5.61112  1_645   S
    C70    O74       1.06072      .   S
    Zr5    O74       2.19619  1_554   S
    C75    O76       1.06336      .   S
    Zr13   O76       2.18684  1_455   S
    C75    O77       1.10923      .   S
    N36    O77       5.58773      .   S
    C75    O78       1.12971      .   S
    Zr15   O78       2.26564      .   S
    C79    O80       1.11013      .   S
    Zr5    O80       2.30889  1_554   S
    C79    O81       0.92744      .   S
    Zr15   O81       2.03180      .   S
    C79    O82       1.06075      .   S
    Zr7    O82       2.19597  1_554   S
    C79    O83       1.11341      .   S
    N44    O83       5.61132  1_545   S
    C84    O85       1.11338      .   S
    N18    O85       5.61145      .   S
    C84    O86       1.06067      .   S
    Zr9    O86       2.19573      .   S
    C84    O87       0.92750      .   S
    Zr2    O87       2.03190      .   S
    C84    O88       1.11006      .   S
    Zr11   O88       2.30865      .   S
    C89    O90       1.10932      .   S
    N26    O90       5.58854  1_455   S
    C89    O91       1.12969      .   S
    Zr0    O91       2.26552  1_455   S
    C89    O92       1.06337      .   S
    Zr2    O92       2.18689      .   S
    C93    O94       1.12968      .   S
    Zr11   O94       2.26556  1_655   S
    C93    O95       1.06339      .   S
    Zr9    O95       2.18692      .   S
    C93    O96       1.10908      .   S
    N46    O96       5.58791  1_655   S
    C97    O98       1.06068      .   S
    Zr2    O98       2.19573      .   S
    C97    O99       1.11005      .   S
    Zr0    O99       2.30863      .   S
    C97    O100      0.92749      .   S
    Zr9    O100      2.03187      .   S
    C97    O101      1.11335      .   S
    N38    O101      5.61118      .   S
    C102   O103      1.12970      .   S
    Zr2    O103      2.26553      .   S
    C102   O104      1.10933      .   S
    N32    O104      5.58855      .   S
    C102   O105      1.06337      .   S
    Zr0    O105      2.18689      .   S
    C106   O107      1.06069      .   S
    Zr11   O107      2.19573  1_655   S
    C106   O108      0.92751      .   S
    Zr0    O108      2.03190      .   S
    C106   O109      1.11008      .   S
    Zr9    O109      2.30867      .   S
    C106   O110      1.11338      .   S
    N30    O110      5.61143      .   S
    C111   O112      1.06340      .   S
    Zr11   O112      2.18692      .   S
    C111   O113      1.10908      .   S
    N34    O113      5.58791      .   S
    C111   O114      1.12969      .   S
    Zr9    O114      2.26557      .   S
    C115   O116      1.11101      .   S
    N22    O116      5.60761      .   S
    C115   O117      1.10155      .   S
    Zr2    O117      2.30066      .   S
    C115   O118      0.92339      .   S
    Zr11   O118      2.03111      .   S
    C115   O119      1.05633      .   S
    Zr0    O119      2.21490  1_455   S
    C120   O121      1.06114      .   S
    Zr8    O121      2.19640      .   S
    C120   O122      1.11290      .   S
    N24    O122      5.61088      .   S
    C120   O123      0.92752      .   S
    Zr3    O123      2.03194  1_565   S
    C120   O124      1.10981      .   S
    Zr10   O124      2.31018      .   S
    C125   O126      1.06339      .   S
    Zr8    O126      2.18691      .   S
    C125   O127      1.10908      .   S
    N42    O127      5.58791  1_655   S
    C125   O128      1.12968      .   S
    Zr10   O128      2.26557  1_655   S
    C129   O130      1.06325      .   S
    Zr10   O130      2.18671      .   S
    C129   O131      1.12977      .   S
    Zr8    O131      2.26511      .   S
    C129   O132      1.10943      .   S
    N44    O132      5.58824      .   S
    C133   O134      1.12969      .   S
    Zr1    O134      2.26552  1_455   S
    C133   O135      1.10938      .   S
    N40    O135      5.58772  1_455   S
    C133   O136      1.06337      .   S
    Zr3    O136      2.18689      .   S
    C137   O138      1.10938      .   S
    N16    O138      5.58772      .   S
    C137   O139      1.06337      .   S
    Zr1    O139      2.18689      .   S
    C137   O140      1.12970      .   S
    Zr3    O140      2.26554      .   S
    C141   O142      0.92754      .   S
    Zr1    O142      2.03201  1_565   S
    C141   O143      1.11005      .   S
    Zr8    O143      2.30864      .   S
    C141   O144      1.06067      .   S
    Zr10   O144      2.19572  1_655   S
    C141   O145      1.11338      .   S
    N20    O145      5.61129      .   S
    C146   O147      1.11005      .   S
    Zr1    O147      2.30862      .   S
    C146   O148      0.92753      .   S
    Zr8    O148      2.03199  1_545   S
    C146   O149      1.11338      .   S
    N28    O149      5.61116      .   S
    C146   O150      1.06068      .   S
    Zr3    O150      2.19574      .   S
    C151   O152      1.10155      .   S
    Zr3    O152      2.30067      .   S
    C151   O153      0.92342      .   S
    Zr10   O153      2.03122  1_545   S
    C151   O154      1.11099      .   S
    N36    O154      5.60774      .   S
    C151   O155      1.05634      .   S
    Zr1    O155      2.21493  1_455   S
    C156   O157      1.12961      .   S
    Zr4    O157      2.26548      .   S
    C156   O158      1.10910      .   S
    N20    O158      5.58817      .   S
    C156   O159      1.06327      .   S
    Zr6    O159      2.18662  1_655   S
    C160   O161      1.10917      .   S
    N22    O161      5.58813      .   S
    C160   O162      1.06336      .   S
    Zr12   O162      2.18683  1_455   S
    C160   O163      1.12971      .   S
    Zr14   O163      2.26564      .   S
    C164   O165      1.12971      .   S
    Zr6    O165      2.26559      .   S
    C164   O166      1.10906      .   S
    N24    O166      5.58785      .   S
    C164   O167      1.06335      .   S
    Zr4    O167      2.18675      .   S
    C168   O169      0.92746      .   S
    Zr4    O169      2.03183      .   S
    C168   O170      1.11012      .   S
    Zr14   O170      2.30883  1_556   S
    C168   O171      1.11328      .   S
    N16    O171      5.61141  1_565   S
    C168   O172      1.06071      .   S
    Zr12   O172      2.19591  1_556   S
    C173   O174      1.11328      .   S
    N40    O174      5.61142  1_465   S
    C173   O175      1.06071      .   S
    Zr14   O175      2.19591  1_556   S
    C173   O176      0.92745      .   S
    Zr6    O176      2.03182      .   S
    C173   O177      1.11012      .   S
    Zr12   O177      2.30882  1_456   S
    C178   O179      1.10915      .   S
    N38    O179      5.58815      .   S
    C178   O180      1.12971      .   S
    Zr12   O180      2.26564      .   S
    C178   O181      1.06337      .   S
    Zr14   O181      2.18685      .   S
    C182   O183      1.11014      .   S
    Zr4    O183      2.30890  1_554   S
    C182   O184      0.92745      .   S
    Zr14   O184      2.03184      .   S
    C182   O185      1.11340      .   S
    N34    O185      5.61118      .   S
    C182   O186      1.06073      .   S
    Zr6    O186      2.19599  1_554   S
    C187   O188      1.11013      .   S
    Zr6    O188      2.30888  1_654   S
    C187   O189      0.92745      .   S
    Zr12   O189      2.03184      .   S
    C187   O190      1.11343      .   S
    N46    O190      5.61113  1_655   S
    C187   O191      1.06073      .   S
    Zr4    O191      2.19599  1_554   S
