# CIF file generated by openbabel 2.4.90, see http://openbabel.sf.net
data_I
_chemical_name_common ''
_cell_length_a 15.75
_cell_length_b 15.748
_cell_length_c 16.414
_cell_angle_alpha 89.999
_cell_angle_beta 89.999
_cell_angle_gamma 119.966
_space_group_name_H-M_alt 'P 1'
_space_group_name_Hall 'P 1'
loop_
    _symmetry_equiv_pos_as_xyz
    x,y,z
loop_
    _atom_site_label
    _atom_site_type_symbol
    _atom_site_fract_x
    _atom_site_fract_y
    _atom_site_fract_z
    _atom_site_occupancy
    H0      H    0.01703   0.55158   0.78518   1.000
    H1      H    0.53447   0.98292   0.78515   1.000
    H2      H    0.44842   0.46541   0.78515   1.000
    H3      H    0.98294   0.44843   0.21480   1.000
    H4      H    0.46548   0.01704   0.21485   1.000
    H5      H    0.55156   0.53455   0.21486   1.000
