# CIF file generated by openbabel 2.4.90, see http://openbabel.sf.net
data_I
_chemical_name_common ''
_cell_length_a 15.75
_cell_length_b 15.748
_cell_length_c 16.414
_cell_angle_alpha 89.999
_cell_angle_beta 89.999
_cell_angle_gamma 119.966
_space_group_name_H-M_alt 'P 1'
_space_group_name_Hall 'P 1'
loop_
    _symmetry_equiv_pos_as_xyz
    x,y,z
loop_
    _atom_site_label
    _atom_site_type_symbol
    _atom_site_fract_x
    _atom_site_fract_y
    _atom_site_fract_z
    _atom_site_occupancy
    H0      H    0.01703   0.55158   0.78518   1.000
    H1      H    0.53447   0.98292   0.78515   1.000
    H2      H    0.44842   0.46541   0.78515   1.000
    H3      H    0.98294   0.44843   0.21480   1.000
    H4      H    0.46548   0.01704   0.21485   1.000
    H5      H    0.55156   0.53455   0.21486   1.000
    C6      C    0.14084   0.54376   0.74024   1.000
    C7      C    0.12854   0.61132   0.87746   1.000
    C8      C    0.40290   0.85915   0.74028   1.000
    C9      C    0.48276   0.87145   0.87749   1.000
    C10     C    0.45617   0.59703   0.74025   1.000
    C11     C    0.38868   0.51721   0.87747   1.000
    C12     C    0.85913   0.45623   0.25976   1.000
    C13     C    0.87144   0.38870   0.12254   1.000
    C14     C    0.59703   0.14083   0.25974   1.000
    C15     C    0.51719   0.12850   0.12251   1.000
    C16     C    0.54376   0.40291   0.25975   1.000
    C17     C    0.61132   0.48276   0.12255   1.000
