# CIF file generated by openbabel 2.4.90, see http://openbabel.sf.net
data_I
_chemical_name_common ''
_cell_length_a 15.75
_cell_length_b 15.748
_cell_length_c 16.414
_cell_angle_alpha 89.999
_cell_angle_beta 89.999
_cell_angle_gamma 119.966
_space_group_name_H-M_alt 'P 1'
_space_group_name_Hall 'P 1'
loop_
    _symmetry_equiv_pos_as_xyz
    x,y,z
loop_
    _atom_site_label
    _atom_site_type_symbol
    _atom_site_fract_x
    _atom_site_fract_y
    _atom_site_fract_z
    _atom_site_occupancy
    Zn0     Zn   0.66661   0.33325   0.16969   1.000
    Ag1     Ag   0.84656   0.26498   0.26760   1.000
    Ag2     Ag   0.41839   0.15338   0.26762   1.000
    Ag3     Ag   0.73493   0.58158   0.26759   1.000
    Ag4     Ag   0.15334   0.73501   0.73200   1.000
    Ag5     Ag   0.58157   0.84659   0.73236   1.000
    Ag6     Ag   0.26502   0.41842   0.73230   1.000
    Zn7     Zn   0.33331   0.66670   0.83031   1.000
    C8      C    0.09372   0.57567   0.79698   1.000
    C9      C    0.48190   0.90624   0.79699   1.000
    C10     C    0.42433   0.51804   0.79699   1.000
    C11     C    0.90626   0.42436   0.20301   1.000
    C12     C    0.51806   0.09372   0.20300   1.000
    C13     C    0.57566   0.48193   0.20304   1.000
loop_
    _geom_bond_atom_site_label_1
    _geom_bond_atom_site_label_2
    _geom_bond_distance
    _geom_bond_site_symmetry_2
    _ccdc_geom_bond_type
    C12    Ag2       2.43829      .   S
    C11    Ag1       2.43934      .   S
    C13    Ag3       2.43840      .   S
    Ag4    C8        2.44179      .   S
    Ag6    C10       2.43963      .   S
    Ag5    C9        2.43835      .   S
