# CIF file generated by openbabel 2.4.90, see http://openbabel.sf.net
data_I
_chemical_name_common ''
_cell_length_a 15.75
_cell_length_b 15.748
_cell_length_c 16.414
_cell_angle_alpha 89.999
_cell_angle_beta 89.999
_cell_angle_gamma 119.966
_space_group_name_H-M_alt 'P 1'
_space_group_name_Hall 'P 1'
loop_
    _symmetry_equiv_pos_as_xyz
    x,y,z
loop_
    _atom_site_label
    _atom_site_type_symbol
    _atom_site_fract_x
    _atom_site_fract_y
    _atom_site_fract_z
    _atom_site_occupancy
    N0      N    0.85913   0.45623   0.25976   1.000
    N1      N    0.51719   0.12850   0.12251   1.000
    N2      N    0.61132   0.48276   0.12255   1.000
    N3      N    0.14084   0.54376   0.74024   1.000
    N4      N    0.40290   0.85915   0.74028   1.000
    N5      N    0.12854   0.61132   0.87746   1.000
    N6      N    0.38868   0.51721   0.87747   1.000
    N7      N    0.54376   0.40291   0.25975   1.000
    N8      N    0.48276   0.87145   0.87749   1.000
    N9      N    0.87144   0.38870   0.12254   1.000
    N10     N    0.59703   0.14083   0.25974   1.000
    N11     N    0.45617   0.59703   0.74025   1.000
    Zr12    Zr   0.33331   0.66670   0.83031   1.000
    O13     O    0.28858   0.65488   0.85768   1.000
    O14     O    0.34512   0.63376   0.85768   1.000
    O15     O    0.36626   0.71143   0.85768   1.000
    O16     O    0.33168   0.70615   0.80016   1.000
    O17     O    0.37439   0.66832   0.80015   1.000
    O18     O    0.29387   0.62559   0.80014   1.000
    Zr19    Zr   0.87641   0.34467   0.23530   1.000
    O20     O    0.79564   0.29099   0.24489   1.000
    O21     O    0.80933   0.22998   0.17805   1.000
    O22     O    0.91348   0.34694   0.34073   1.000
    O23     O    0.87828   0.37114   0.18898   1.000
    O24     O    0.87367   0.39647   0.24044   1.000
    Zr25    Zr   0.46822   0.12355   0.23531   1.000
    O26     O    0.49281   0.12168   0.18897   1.000
    O27     O    0.52276   0.12630   0.24043   1.000
    O28     O    0.49531   0.20429   0.24489   1.000
    O29     O    0.42060   0.19060   0.17806   1.000
    O30     O    0.43341   0.08647   0.34073   1.000
    Zr31    Zr   0.65530   0.53175   0.23531   1.000
    O32     O    0.60352   0.47721   0.24044   1.000
    O33     O    0.62885   0.50715   0.18899   1.000
    O34     O    0.65304   0.56655   0.34073   1.000
    O35     O    0.70896   0.50467   0.24491   1.000
    O36     O    0.76997   0.57939   0.17806   1.000
    Zr37    Zr   0.66661   0.33325   0.16969   1.000
    O38     O    0.63368   0.28852   0.14230   1.000
    O39     O    0.71136   0.34509   0.14233   1.000
    O40     O    0.66825   0.29382   0.19984   1.000
    O41     O    0.62553   0.33162   0.19984   1.000
    O42     O    0.70608   0.37437   0.19986   1.000
    O43     O    0.65481   0.36619   0.14231   1.000
    Zr44    Zr   0.12353   0.65534   0.76449   1.000
    O45     O    0.12630   0.60354   0.75946   1.000
    O46     O    0.12168   0.62887   0.81091   1.000
    O47     O    0.20429   0.70901   0.75496   1.000
    O48     O    0.08646   0.65307   0.65912   1.000
    O49     O    0.19060   0.77002   0.82178   1.000
    Zr50    Zr   0.34468   0.46823   0.76464   1.000
    O51     O    0.39644   0.52276   0.75954   1.000
    O52     O    0.37113   0.49282   0.81100   1.000
    O53     O    0.29101   0.49532   0.75506   1.000
    O54     O    0.23000   0.42062   0.82190   1.000
    O55     O    0.34693   0.43343   0.65924   1.000
    Zr56    Zr   0.53173   0.87642   0.76467   1.000
    O57     O    0.50714   0.87828   0.81102   1.000
    O58     O    0.47719   0.87367   0.75957   1.000
    O59     O    0.56654   0.91348   0.65926   1.000
    O60     O    0.50463   0.79566   0.75509   1.000
    O61     O    0.57936   0.80936   0.82193   1.000
loop_
    _geom_bond_atom_site_label_1
    _geom_bond_atom_site_label_2
    _geom_bond_distance
    _geom_bond_site_symmetry_2
    _ccdc_geom_bond_type
    Zr12   O13       0.77578      .   S
    N5     O13       2.28086      .   S
    Zr12   O14       0.77578      .   S
    N6     O14       2.28096      .   S
    Zr12   O15       0.77598      .   S
    N8     O15       2.28120      .   S
    Zr12   O16       0.80471      .   S
    N4     O16       2.30856      .   S
    Zr12   O17       0.80484      .   S
    N11    O17       2.30884      .   S
    Zr12   O18       0.80530      .   S
    N3     O18       2.30952      .   S
    Zr19   O20       1.13287      .   S
    N10    O20       2.83669      .   S
    Zr19   O21       1.83178      .   S
    N8     O21       7.32556  1_566   S
    Zr19   O22       1.82088      .   S
    N3     O22       7.37199  1_455   S
    Zr19   O23       0.86054      .   S
    N9     O23       1.14329      .   S
    Zr19   O24       0.84238      .   S
    N0     O24       1.11979      .   S
    Zr25   O26       0.86067      .   S
    N1     O26       1.14355      .   S
    Zr25   O27       0.84229      .   S
    N10    O27       1.11980      .   S
    Zr25   O28       1.13211      .   S
    N7     O28       2.83565      .   S
    Zr25   O29       1.83085      .   S
    N6     O29       7.32351  1_556   S
    Zr25   O30       1.82094      .   S
    N4     O30       7.37141  1_565   S
    Zr31   O32       0.84273      .   S
    N7     O32       1.12032      .   S
    Zr31   O33       0.86051      .   S
    N2     O33       1.14336      .   S
    Zr31   O34       1.82076      .   S
    N11    O34       7.37109      .   S
    Zr31   O35       1.13199      .   S
    N0     O35       2.83509      .   S
    Zr31   O36       1.83160      .   S
    N5     O36       7.32477  1_456   S
    Zr37   O38       0.77610      .   S
    N1     O38       2.28109      .   S
    Zr37   O39       0.77582      .   S
    N9     O39       2.28124      .   S
    Zr37   O40       0.80450      .   S
    N10    O40       2.30853      .   S
    Zr37   O41       0.80477      .   S
    N7     O41       2.30868      .   S
    Zr37   O42       0.80552      .   S
    N0     O42       2.30985      .   S
    Zr37   O43       0.77582      .   S
    N2     O43       2.28058      .   S
    Zr44   O45       0.84238      .   S
    N3     O45       1.11957      .   S
    Zr44   O46       0.86203      .   S
    N5     O46       1.14496      .   S
    Zr44   O47       1.13259      .   S
    N4     O47       2.83636      .   S
    Zr44   O48       1.82006      .   S
    N0     O48       7.36968  1_655   S
    Zr44   O49       1.83197      .   S
    N1     O49       7.32715  1_544   S
    Zr50   O51       0.84246      .   S
    N11    O51       1.11988      .   S
    Zr50   O52       0.86098      .   S
    N6     O52       1.14381      .   S
    Zr50   O53       1.13201      .   S
    N3     O53       2.83514      .   S
    Zr50   O54       1.83159      .   S
    N9     O54       7.32522  1_654   S
    Zr50   O55       1.82064      .   S
    N7     O55       7.37058      .   S
    Zr56   O57       0.86077      .   S
    N8     O57       1.14370      .   S
    Zr56   O58       0.84243      .   S
    N4     O58       1.11993      .   S
    Zr56   O59       1.82088      .   S
    N10    O59       7.37110  1_545   S
    Zr56   O60       1.13223      .   S
    N11    O60       2.83579      .   S
    Zr56   O61       1.83081      .   S
    N2     O61       7.32403  1_554   S
