# CIF file generated by openbabel 2.4.90, see http://openbabel.sf.net
data_I
_chemical_name_common ''
_cell_length_a 15.75
_cell_length_b 15.748
_cell_length_c 16.414
_cell_angle_alpha 89.999
_cell_angle_beta 89.999
_cell_angle_gamma 119.966
_space_group_name_H-M_alt 'P 1'
_space_group_name_Hall 'P 1'
loop_
    _symmetry_equiv_pos_as_xyz
    x,y,z
loop_
    _atom_site_label
    _atom_site_type_symbol
    _atom_site_fract_x
    _atom_site_fract_y
    _atom_site_fract_z
    _atom_site_occupancy
    Zr0     Zr   0.33331   0.66670   0.83031   1.000
    Zr1     Zr   0.66661   0.33325   0.16969   1.000
    Zr2     Zr   0.84656   0.26498   0.26760   1.000
    Zr3     Zr   0.41839   0.15338   0.26762   1.000
    Zr4     Zr   0.73493   0.58158   0.26759   1.000
    Zr5     Zr   0.15334   0.73501   0.73200   1.000
    Zr6     Zr   0.58157   0.84659   0.73236   1.000
    Zr7     Zr   0.26502   0.41842   0.73230   1.000
    Zr8     Zr   0.09372   0.57567   0.79698   1.000
    Zr9     Zr   0.48190   0.90624   0.79699   1.000
    Zr10    Zr   0.42433   0.51804   0.79699   1.000
    Zr11    Zr   0.90626   0.42436   0.20301   1.000
    Zr12    Zr   0.51806   0.09372   0.20300   1.000
    Zr13    Zr   0.57566   0.48193   0.20304   1.000
    O14     O    0.46822   0.12355   0.23531   1.000
    O15     O    0.87641   0.34467   0.23530   1.000
    O16     O    0.65530   0.53175   0.23531   1.000
    O17     O    0.12353   0.65534   0.76449   1.000
    O18     O    0.34468   0.46823   0.76464   1.000
    O19     O    0.53173   0.87642   0.76467   1.000
    N20     N    0.85913   0.45623   0.25976   1.000
    O21     O    0.87092   0.44826   0.24557   1.000
    O22     O    0.04939   0.65080   0.55375   1.000
    O23     O    0.74554   0.41549   0.23003   1.000
    O24     O    0.76263   0.47758   0.25450   1.000
    N25     N    0.51719   0.12850   0.12251   1.000
    O26     O    0.51740   0.11981   0.14263   1.000
    O27     O    0.60075   0.24380   0.11491   1.000
    O28     O    0.25767   0.88470   0.87908   1.000
    N29     N    0.61132   0.48276   0.12255   1.000
    O30     O    0.60240   0.48255   0.14267   1.000
    O31     O    0.62698   0.74231   0.87918   1.000
    O32     O    0.64301   0.39913   0.11493   1.000
    N33     N    0.14084   0.54376   0.74024   1.000
    O34     O    0.12906   0.55174   0.75442   1.000
    O35     O    0.25442   0.58449   0.76997   1.000
    O36     O    0.23735   0.52242   0.74547   1.000
    O37     O    0.95054   0.34920   0.44615   1.000
    N38     N    0.40290   0.85915   0.74028   1.000
    O39     O    0.42265   0.87092   0.75446   1.000
    O40     O    0.33004   0.74560   0.77001   1.000
    O41     O    0.28505   0.76268   0.74543   1.000
    O42     O    0.39859   0.04940   0.44615   1.000
    N43     N    0.12854   0.61132   0.87746   1.000
    O44     O    0.11984   0.60241   0.85734   1.000
    O45     O    0.24385   0.64306   0.88505   1.000
    O46     O    0.88465   0.62702   0.12080   1.000
    N47     N    0.38868   0.51721   0.87747   1.000
    O48     O    0.39759   0.51742   0.85735   1.000
    O49     O    0.35692   0.60082   0.88505   1.000
    O50     O    0.37297   0.25765   0.12081   1.000
    N51     N    0.54376   0.40291   0.25975   1.000
    O52     O    0.55174   0.42266   0.24557   1.000
    O53     O    0.52240   0.28503   0.25448   1.000
    O54     O    0.58446   0.33000   0.23000   1.000
    O55     O    0.34919   0.39863   0.55383   1.000
    N56     N    0.48276   0.87145   0.87749   1.000
    O57     O    0.48255   0.88015   0.85736   1.000
    O58     O    0.39920   0.75616   0.88505   1.000
    O59     O    0.74225   0.11529   0.12079   1.000
    N60     N    0.87144   0.38870   0.12254   1.000
    O61     O    0.88014   0.39761   0.14266   1.000
    O62     O    0.75611   0.35693   0.11496   1.000
    O63     O    0.11533   0.37301   0.87916   1.000
    N64     N    0.59703   0.14083   0.25974   1.000
    O65     O    0.57729   0.12905   0.24555   1.000
    O66     O    0.71487   0.23732   0.25447   1.000
    O67     O    0.66988   0.25438   0.23000   1.000
    O68     O    0.60134   0.95055   0.55384   1.000
    N69     N    0.45617   0.59703   0.74025   1.000
    O70     O    0.44821   0.57728   0.75443   1.000
    O71     O    0.65078   0.60135   0.44615   1.000
    O72     O    0.41547   0.66994   0.76999   1.000
    O73     O    0.47753   0.71491   0.74551   1.000
    N74     N    0.55156   0.53455   0.21486   1.000
    O75     O    0.55759   0.52140   0.21190   1.000
    N76     N    0.98294   0.44843   0.21480   1.000
    O77     O    0.96377   0.44241   0.21185   1.000
    N78     N    0.53447   0.98292   0.78515   1.000
    O79     O    0.52133   0.96375   0.78811   1.000
    N80     N    0.44842   0.46541   0.78515   1.000
    O81     O    0.44239   0.47857   0.78811   1.000
    N82     N    0.01703   0.55158   0.78518   1.000
    O83     O    0.03621   0.55760   0.78813   1.000
    N84     N    0.46548   0.01704   0.21485   1.000
    O85     O    0.47862   0.03621   0.21189   1.000
loop_
    _geom_bond_atom_site_label_1
    _geom_bond_atom_site_label_2
    _geom_bond_distance
    _geom_bond_site_symmetry_2
    _ccdc_geom_bond_type
    Zr12   O14       1.21915      .   S
    Zr3    O14       1.21915      .   S
    Zr11   O15       1.21967      .   S
    Zr2    O15       1.21967      .   S
    Zr13   O16       1.21920      .   S
    Zr4    O16       1.21920      .   S
    Zr5    O17       1.22090      .   S
    Zr8    O17       1.22090      .   S
    Zr7    O18       1.21981      .   S
    Zr10   O18       1.21981      .   S
    Zr6    O19       1.21917      .   S
    Zr9    O19       1.21917      .   S
    N20    O21       0.35731      .   S
    Zr11   O21       1.07193      .   S
    N20    O22       5.69941  1_655   S
    Zr5    O22       3.29097      .   S
    N20    O23       1.64434      .   S
    Zr1    O23       1.61104      .   S
    N20    O24       1.71502      .   S
    Zr4    O24       1.90595      .   S
    N25    O26       0.35823      .   S
    Zr12   O26       1.07470      .   S
    N25    O27       1.63004      .   S
    Zr1    O27       1.55220      .   S
    N25    O28       5.63361  1_544   S
    Zr5    O28       3.19618      .   S
    N29    O30       0.35826      .   S
    Zr13   O30       1.07479      .   S
    N29    O31       5.63183  1_554   S
    Zr6    O31       3.19199      .   S
    N29    O32       1.62982      .   S
    Zr1    O32       1.55164      .   S
    N33    O34       0.35732      .   S
    Zr8    O34       1.07195      .   S
    N33    O35       1.64430      .   S
    Zr0    O35       1.61061      .   S
    N33    O36       1.71505      .   S
    Zr7    O36       1.90577      .   S
    N33    O37       5.70088  1_455   S
    Zr2    O37       3.29555      .   S
    N38    O39       0.35731      .   S
    Zr9    O39       1.07192      .   S
    N38    O40       1.64390      .   S
    Zr0    O40       1.60942      .   S
    N38    O41       1.71563      .   S
    Zr5    O41       1.90754      .   S
    N38    O42       5.70018  1_565   S
    Zr3    O42       3.29474      .   S
    N43    O44       0.35825      .   S
    Zr8    O44       1.07476      .   S
    N43    O45       1.62999      .   S
    Zr0    O45       1.55156      .   S
    N43    O46       5.63182  1_456   S
    Zr4    O46       3.19251      .   S
    N47    O48       0.35822      .   S
    Zr10   O48       1.07467      .   S
    N47    O49       1.63007      .   S
    Zr0    O49       1.55155      .   S
    N47    O50       5.63135  1_556   S
    Zr3    O50       3.19193      .   S
    N51    O52       0.35731      .   S
    Zr13   O52       1.07194      .   S
    N51    O53       1.71543      .   S
    Zr3    O53       1.90676      .   S
    N51    O54       1.64398      .   S
    Zr1    O54       1.60954      .   S
    N51    O55       5.69984      .   S
    Zr7    O55       3.29382      .   S
    N56    O57       0.35828      .   S
    Zr9    O57       1.07483      .   S
    N56    O58       1.63000      .   S
    Zr0    O58       1.55195      .   S
    N56    O59       5.63215  1_566   S
    Zr2    O59       3.19279      .   S
    N60    O61       0.35823      .   S
    Zr11   O61       1.07469      .   S
    N60    O62       1.63020      .   S
    Zr1    O62       1.55165      .   S
    N60    O63       5.63220  1_654   S
    Zr7    O63       3.19324      .   S
    N64    O65       0.35735      .   S
    Zr12   O65       1.07206      .   S
    N64    O66       1.71570      .   S
    Zr2    O66       1.90673      .   S
    N64    O67       1.64404      .   S
    Zr1    O67       1.60900      .   S
    N64    O68       5.69995  1_545   S
    Zr6    O68       3.29459      .   S
    N69    O70       0.35734      .   S
    Zr10   O70       1.07202      .   S
    N69    O71       5.70028      .   S
    Zr4    O71       3.29485      .   S
    N69    O72       1.64404      .   S
    Zr0    O72       1.60969      .   S
    N69    O73       1.71546      .   S
    Zr6    O73       1.90716      .   S
    N74    O75       0.27187      .   S
    Zr13   O75       0.81562      .   S
    N76    O77       0.27185      .   S
    Zr11   O77       0.81555      .   S
    N78    O79       0.27187      .   S
    Zr9    O79       0.81562      .   S
    N80    O81       0.27188      .   S
    Zr10   O81       0.81563      .   S
    N82    O83       0.27187      .   S
    Zr8    O83       0.81562      .   S
    N84    O85       0.27187      .   S
    Zr12   O85       0.81562      .   S
