# CIF file generated by openbabel 2.4.90, see http://openbabel.sf.net
data_I
_chemical_name_common ''
_cell_length_a 13.019
_cell_length_b 12.951
_cell_length_c 21.117
_cell_angle_alpha 85.765
_cell_angle_beta 85.797
_cell_angle_gamma 69.843
_space_group_name_H-M_alt 'P 1'
_space_group_name_Hall 'P 1'
loop_
    _symmetry_equiv_pos_as_xyz
    x,y,z
loop_
    _atom_site_label
    _atom_site_type_symbol
    _atom_site_fract_x
    _atom_site_fract_y
    _atom_site_fract_z
    _atom_site_occupancy
    H0      H    0.86784   0.14289   0.09728   1.000
    H1      H    0.73902   0.46564   0.22525   1.000
    H2      H    0.90532   0.29885   0.25473   1.000
    H3      H    0.22863   0.21877   0.31434   1.000
    H4      H    0.82122   0.10421   0.91384   1.000
    H5      H    0.06761   0.04118   0.44357   1.000
    H6      H    0.24660   0.22672   0.51653   1.000
    H7      H    0.68471   0.11347   0.74033   1.000
    H8      H    0.52508   0.28300   0.77172   1.000
    H9      H    0.85669   0.13236   0.40264   1.000
    H10     H    0.53535   0.26005   0.27476   1.000
    H11     H    0.70226   0.09427   0.24492   1.000
    H12     H    0.78240   0.77017   0.18559   1.000
    H13     H    0.89576   0.17913   0.58595   1.000
    H14     H    0.95969   0.93138   0.05640   1.000
    H15     H    0.77322   0.75343   0.98338   1.000
    H16     H    0.88645   0.31648   0.75930   1.000
    H17     H    0.71633   0.47564   0.72840   1.000
    H18     H    0.13218   0.85709   0.90270   1.000
    H19     H    0.26100   0.53433   0.77473   1.000
    H20     H    0.09469   0.70112   0.74525   1.000
    H21     H    0.77140   0.78121   0.68564   1.000
    H22     H    0.17881   0.89577   0.08614   1.000
    H23     H    0.93243   0.95880   0.55641   1.000
    H24     H    0.75344   0.77326   0.48345   1.000
    H25     H    0.31533   0.88652   0.25960   1.000
    H26     H    0.47495   0.71698   0.22820   1.000
    H27     H    0.14335   0.86761   0.59733   1.000
    H28     H    0.46469   0.73990   0.72522   1.000
    H29     H    0.29777   0.90569   0.75506   1.000
    H30     H    0.21764   0.22979   0.81438   1.000
    H31     H    0.10428   0.82084   0.41403   1.000
    H32     H    0.04034   0.06860   0.94358   1.000
    H33     H    0.22681   0.24656   0.01660   1.000
    H34     H    0.11360   0.68350   0.24060   1.000
    H35     H    0.28372   0.52434   0.27155   1.000
    C36     C    0.83757   0.21333   0.12724   1.000
    C37     C    0.76649   0.39190   0.19791   1.000
    C38     C    0.85753   0.30082   0.21409   1.000
    C39     C    0.74775   0.30592   0.11024   1.000
    C40     C    0.69599   0.31131   0.05103   1.000
    C41     C    0.20859   0.19357   0.36264   1.000
    C42     C    0.10554   0.08770   0.31640   1.000
    C43     C    0.14459   0.12537   0.37282   1.000
    C44     C    0.75557   0.14405   0.88154   1.000
    C45     C    0.66818   0.23852   0.89851   1.000
    C46     C    0.66321   0.28369   0.95993   1.000
    C47     C    0.31774   0.29945   0.40489   1.000
    C48     C    0.15308   0.13210   0.48689   1.000
    C49     C    0.11755   0.09376   0.43509   1.000
    C50     C    0.21841   0.19825   0.47617   1.000
    C51     C    0.24719   0.22872   0.41423   1.000
    C52     C    0.67962   0.14982   0.78590   1.000
    C53     C    0.59267   0.24402   0.80275   1.000
    C54     C    0.12036   0.10563   0.55413   1.000
    C55     C    0.78653   0.16235   0.37270   1.000
    C56     C    0.60871   0.23282   0.30210   1.000
    C57     C    0.69992   0.14205   0.28573   1.000
    C58     C    0.69383   0.25181   0.38994   1.000
    C59     C    0.68808   0.30349   0.44930   1.000
    C60     C    0.80737   0.79039   0.13729   1.000
    C61     C    0.91388   0.89267   0.18361   1.000
    C62     C    0.87582   0.85412   0.12713   1.000
    C63     C    0.85574   0.24483   0.61833   1.000
    C64     C    0.76090   0.33186   0.60165   1.000
    C65     C    0.71557   0.33644   0.54038   1.000
    C66     C    0.70052   0.68222   0.09505   1.000
    C67     C    0.86833   0.84641   0.01305   1.000
    C68     C    0.90705   0.88151   0.06480   1.000
    C69     C    0.80198   0.78129   0.02376   1.000
    C70     C    0.77166   0.75236   0.08570   1.000
    C71     C    0.84994   0.32126   0.71393   1.000
    C72     C    0.75543   0.40790   0.69730   1.000
    C73     C    0.89474   0.87932   0.94581   1.000
    C74     C    0.16245   0.78664   0.87270   1.000
    C75     C    0.23353   0.60807   0.80207   1.000
    C76     C    0.14249   0.69915   0.78589   1.000
    C77     C    0.25227   0.69406   0.88974   1.000
    C78     C    0.30404   0.68867   0.94895   1.000
    C79     C    0.79144   0.80641   0.63730   1.000
    C80     C    0.89450   0.91228   0.68358   1.000
    C81     C    0.85544   0.87462   0.62715   1.000
    C82     C    0.24446   0.85593   0.11844   1.000
    C83     C    0.33185   0.76146   0.10146   1.000
    C84     C    0.33682   0.71629   0.04005   1.000
    C85     C    0.68229   0.70053   0.59508   1.000
    C86     C    0.84696   0.86788   0.51309   1.000
    C87     C    0.88249   0.90621   0.56489   1.000
    C88     C    0.78163   0.80172   0.52381   1.000
    C89     C    0.75285   0.77127   0.58575   1.000
    C90     C    0.32041   0.85016   0.21407   1.000
    C91     C    0.40736   0.75596   0.19722   1.000
    C92     C    0.87968   0.89434   0.44585   1.000
    C93     C    0.21351   0.83761   0.62728   1.000
    C94     C    0.39132   0.76714   0.69780   1.000
    C95     C    0.30012   0.85791   0.71425   1.000
    C96     C    0.30621   0.74815   0.61004   1.000
    C97     C    0.31196   0.69648   0.55067   1.000
    C98     C    0.19266   0.20959   0.86260   1.000
    C99     C    0.08616   0.10729   0.81636   1.000
    C100    C    0.12422   0.14586   0.87280   1.000
    C101    C    0.14431   0.75514   0.38164   1.000
    C102    C    0.23915   0.66811   0.39832   1.000
    C103    C    0.28447   0.66353   0.45959   1.000
    C104    C    0.29952   0.31775   0.90492   1.000
    C105    C    0.13169   0.15359   0.98692   1.000
    C106    C    0.09298   0.11847   0.93511   1.000
    C107    C    0.19805   0.21870   0.97622   1.000
    C108    C    0.22837   0.24763   0.91428   1.000
    C109    C    0.15010   0.67872   0.28604   1.000
    C110    C    0.24461   0.59208   0.30264   1.000
    C111    C    0.10530   0.12065   0.05410   1.000
    N112    N    0.89193   0.21122   0.17888   1.000
    N113    N    0.71082   0.39468   0.14600   1.000
    N114    N    0.60660   0.39766   0.03473   1.000
    N115    N    0.73433   0.23734   0.00581   1.000
    N116    N    0.58538   0.37972   0.97550   1.000
    N117    N    0.76124   0.10030   0.82540   1.000
    N118    N    0.58713   0.28967   0.85862   1.000
    N119    N    0.78915   0.10795   0.32089   1.000
    N120    N    0.60542   0.28850   0.35392   1.000
    N121    N    0.60158   0.39258   0.46583   1.000
    N122    N    0.76206   0.26542   0.49438   1.000
    N123    N    0.61940   0.41392   0.52505   1.000
    N124    N    0.89962   0.23956   0.67429   1.000
    N125    N    0.70962   0.41300   0.64164   1.000
    N126    N    0.10809   0.78875   0.82110   1.000
    N127    N    0.28920   0.60530   0.85368   1.000
    N128    N    0.39343   0.60232   0.96520   1.000
    N129    N    0.26570   0.76263   0.99417   1.000
    N130    N    0.41465   0.62026   0.02448   1.000
    N131    N    0.23879   0.89969   0.17454   1.000
    N132    N    0.41290   0.71031   0.14136   1.000
    N133    N    0.21088   0.89201   0.67908   1.000
    N134    N    0.39461   0.71146   0.64606   1.000
    N135    N    0.39846   0.60739   0.53414   1.000
    N136    N    0.23799   0.73454   0.50560   1.000
    N137    N    0.38064   0.58605   0.47492   1.000
    N138    N    0.10043   0.76041   0.32569   1.000
    N139    N    0.29042   0.58698   0.35830   1.000
    O140    O    0.10241   0.14583   0.26425   1.000
    O141    O    0.08053   0.00065   0.32210   1.000
    O142    O    0.05750   0.04870   0.56437   1.000
    O143    O    0.34655   0.32868   0.34974   1.000
    O144    O    0.34676   0.32853   0.45600   1.000
    O145    O    0.15527   0.14308   0.59930   1.000
    O146    O    0.85716   0.89400   0.23601   1.000
    O147    O    0.99970   0.91909   0.17775   1.000
    O148    O    0.95168   0.94219   0.93560   1.000
    O149    O    0.67097   0.65378   0.15022   1.000
    O150    O    0.67140   0.65322   0.04396   1.000
    O151    O    0.85717   0.84458   0.90055   1.000
    O152    O    0.89763   0.85415   0.73573   1.000
    O153    O    0.91950   0.99933   0.67780   1.000
    O154    O    0.94253   0.95128   0.43560   1.000
    O155    O    0.65348   0.67130   0.65024   1.000
    O156    O    0.65327   0.67145   0.54398   1.000
    O157    O    0.84477   0.85689   0.40062   1.000
    O158    O    0.14289   0.10596   0.76397   1.000
    O159    O    0.00034   0.08088   0.82222   1.000
    O160    O    0.04836   0.05779   0.06438   1.000
    O161    O    0.32906   0.34619   0.84976   1.000
    O162    O    0.32864   0.34676   0.95601   1.000
    O163    O    0.14286   0.15540   0.09942   1.000
loop_
    _geom_bond_atom_site_label_1
    _geom_bond_atom_site_label_2
    _geom_bond_distance
    _geom_bond_site_symmetry_2
    _ccdc_geom_bond_type
    N115   C40       1.34697      .   S
    N115   C46       1.34865  1_554   S
    C67    C69       1.39788      .   S
    C67    C68       1.40251      .   S
    C67    C73       1.50201  1_554   S
    H33    C107      1.08756  1_554   S
    C69    C70       1.40030      .   S
    C69    H15       1.08759  1_554   S
    N130   C84       1.35086      .   S
    N130   N128      1.35471  1_554   S
    N114   C40       1.35218      .   S
    N114   N116      1.35370  1_554   S
    C84    C83       1.44976      .   S
    C84    N129      1.34868  1_554   S
    O150   C66       1.29104      .   S
    C40    C39       1.44936      .   S
    C111   O160      1.27509      .   S
    C111   O163      1.28118      .   S
    C111   C105      1.50088  1_554   S
    H14    C68       1.09016      .   S
    C68    C62       1.40559      .   S
    C70    C66       1.49948      .   S
    C70    C60       1.39890      .   S
    H22    C82       1.09153      .   S
    C66    O149      1.26866      .   S
    H0     C36       1.09034      .   S
    C83    C82       1.40199      .   S
    C83    N132      1.35214      .   S
    C39    C36       1.40199      .   S
    C39    N113      1.34794      .   S
    C82    N131      1.33695      .   S
    C62    C60       1.40495      .   S
    C62    C61       1.50417      .   S
    C36    N112      1.33644      .   S
    C60    H12       1.08865      .   S
    N132   C91       1.34437      .   S
    N113   C37       1.34938      .   S
    N131   C90       1.34855      .   S
    O147   C61       1.27179      .   S
    N112   C38       1.34926      .   S
    C61    O146      1.28232      .   S
    C91    C90       1.39627      .   S
    C91    H26       1.08934      .   S
    C37    C38       1.39615      .   S
    C37    H1        1.09044      .   S
    C90    H25       1.08928      .   S
    C38    H2        1.09013      .   S
    H34    C109      1.09005      .   S
    H11    C57       1.09021      .   S
    O140   C42       1.28227      .   S
    H35    C110      1.09001      .   S
    H10    C56       1.09022      .   S
    C57    C56       1.39609      .   S
    C57    N119      1.34920      .   S
    C109   C110      1.39626      .   S
    C109   N138      1.34858      .   S
    C56    N120      1.34454      .   S
    C110   N139      1.34375      .   S
    H3     C41       1.08873      .   S
    C42    O141      1.27215      .   S
    C42    C43       1.50386      .   S
    N119   C55       1.33652      .   S
    N138   C101      1.33683      .   S
    O143   C47       1.26846      .   S
    N120   C58       1.35167      .   S
    N139   C102      1.35236      .   S
    C41    C43       1.40488      .   S
    C41    C51       1.39915      .   S
    C55    C58       1.40201      .   S
    C55    H9        1.09033      .   S
    C43    C49       1.40446      .   S
    C101   C102      1.40179      .   S
    C101   H31       1.09155      .   S
    C58    C59       1.44930      .   S
    C102   C103      1.44992      .   S
    O157   C92       1.27988      .   S
    C47    C51       1.49953      .   S
    C47    O144      1.29124      .   S
    C51    C50       1.40024      .   S
    C49    H5        1.09027      .   S
    C49    C48       1.40344      .   S
    O154   C92       1.27533      .   S
    C92    C86       1.50173      .   S
    C59    N121      1.35199      .   S
    C59    N122      1.34704      .   S
    C103   N137      1.35088      .   S
    C103   N136      1.34842      .   S
    N121   N123      1.35346      .   S
    N137   N135      1.35345      .   S
    C50    C48       1.39787      .   S
    C50    H6        1.08740      .   S
    H24    C88       1.08739      .   S
    C48    C54       1.50173      .   S
    N122   C65       1.34827      .   S
    N136   C97       1.34688      .   S
    C86    C88       1.39789      .   S
    C86    C87       1.40344      .   S
    C88    C89       1.40023      .   S
    N123   C65       1.35089      .   S
    N135   C97       1.35198      .   S
    C65    C64       1.44993      .   S
    O156   C85       1.29105      .   S
    C97    C96       1.44947      .   S
    C54    O142      1.27532      .   S
    C54    O145      1.27886      .   S
    H23    C87       1.09026      .   S
    C87    C81       1.40428      .   S
    C89    C85       1.49953      .   S
    C89    C79       1.39843      .   S
    H13    C63       1.09142      .   S
    C85    O155      1.26864      .   S
    H27    C93       1.09044      .   S
    C64    C63       1.40178      .   S
    C64    N125      1.35197      .   S
    C96    C93       1.40202      .   S
    C96    N134      1.35164      .   S
    C63    N124      1.33702      .   S
    C81    C79       1.40484      .   S
    C81    C80       1.50405      .   S
    C93    N133      1.33632      .   S
    C79    H21       1.08948      .   S
    N125   C72       1.34375      .   S
    N134   C94       1.34308      .   S
    N124   C71       1.34846      .   S
    O153   C80       1.27217      .   S
    N133   C95       1.34931      .   S
    C80    O152      1.28227      .   S
    C72    C71       1.39642      .   S
    C72    H17       1.09015      .   S
    C94    C95       1.39651      .   S
    C94    H28       1.09116      .   S
    C71    H16       1.08870      .   S
    C95    H29       1.09017      .   S
    H7     C52       1.09005      .   S
    H20    C76       1.09015      .   S
    O158   C99       1.28217      .   S
    H8     C53       1.09000      .   S
    H19    C75       1.09044      .   S
    C76    C75       1.39614      .   S
    C76    N126      1.34927      .   S
    C52    C53       1.39628      .   S
    C52    N117      1.34814      .   S
    C75    N127      1.34404      .   S
    C53    N118      1.34454      .   S
    H30    C98       1.08715      .   S
    C99    O159      1.27178      .   S
    C99    C100      1.50347      .   S
    N126   C74       1.33573      .   S
    N117   C44       1.33770      .   S
    O161   C104      1.26845      .   S
    N127   C77       1.35172      .   S
    N118   C45       1.35200      .   S
    C98    C100      1.40499      .   S
    C98    C108      1.40049      .   S
    C74    C77       1.40222      .   S
    C74    H18       1.09086      .   S
    C100   C106      1.40520      .   S
    C44    C45       1.40193      .   S
    C44    H4        1.09154      .   S
    C77    C78       1.44938      .   S
    C45    C46       1.44994      .   S
    O151   C73       1.28017      .   S
    C104   C108      1.49949      .   S
    C104   O162      1.29106      .   S
    C108   C107      1.40029      .   S
    C106   H32       1.09027      .   S
    C106   C105      1.40358      .   S
    O148   C73       1.27496      .   S
    C78    N128      1.35192      .   S
    C78    N129      1.34696      .   S
    C46    N116      1.35087      .   S
    C107   C105      1.39786      .   S
