# CIF file generated by openbabel 2.4.90, see http://openbabel.sf.net
data_I
_chemical_name_common ''
_cell_length_a 13.019
_cell_length_b 12.951
_cell_length_c 21.117
_cell_angle_alpha 85.765
_cell_angle_beta 85.797
_cell_angle_gamma 69.843
_space_group_name_H-M_alt 'P 1'
_space_group_name_Hall 'P 1'
loop_
    _symmetry_equiv_pos_as_xyz
    x,y,z
loop_
    _atom_site_label
    _atom_site_type_symbol
    _atom_site_fract_x
    _atom_site_fract_y
    _atom_site_fract_z
    _atom_site_occupancy
    Cd0     Cd   0.56834   0.55906   0.08798   1.000
    Cd1     Cd   0.93722   0.92756   0.31800   1.000
    Cd2     Cd   0.44160   0.43101   0.41196   1.000
    Cd3     Cd   0.92836   0.93647   0.81877   1.000
    Cd4     Cd   0.43170   0.44093   0.91199   1.000
    Cd5     Cd   0.06282   0.07241   0.68108   1.000
    Cd6     Cd   0.55844   0.56896   0.58800   1.000
    Cd7     Cd   0.07167   0.06351   0.18121   1.000
