# CIF file generated by openbabel 2.4.90, see http://openbabel.sf.net
data_I
_chemical_name_common ''
_cell_length_a 13.019
_cell_length_b 12.951
_cell_length_c 21.117
_cell_angle_alpha 85.765
_cell_angle_beta 85.797
_cell_angle_gamma 69.843
_space_group_name_H-M_alt 'P 1'
_space_group_name_Hall 'P 1'
loop_
    _symmetry_equiv_pos_as_xyz
    x,y,z
loop_
    _atom_site_label
    _atom_site_type_symbol
    _atom_site_fract_x
    _atom_site_fract_y
    _atom_site_fract_z
    _atom_site_occupancy
    N0      N    0.27458   0.73902   0.99747   1.000
    N1      N    0.72544   0.26096   0.00249   1.000
    N2      N    0.18138   0.16371   0.42519   1.000
    N3      N    0.73888   0.27451   0.49754   1.000
    N4      N    0.26116   0.72546   0.50243   1.000
    N5      N    0.83693   0.81790   0.07476   1.000
    N6      N    0.81865   0.83627   0.57478   1.000
    N7      N    0.16311   0.18208   0.92520   1.000
    Zr8     Zr   0.07167   0.06351   0.18121   1.000
    O9      O    0.10294   0.09885   0.25259   1.000
    O10     O    0.00399   0.98405   0.15416   1.000
    O11     O    0.96265   0.13134   0.13624   1.000
    O12     O    0.14329   0.96191   0.13444   1.000
    Zr13    Zr   0.56834   0.55906   0.08798   1.000
    O14     O    0.64837   0.63554   0.07917   1.000
    Zr15    Zr   0.93722   0.92756   0.31800   1.000
    O16     O    0.90214   0.89595   0.24694   1.000
    O17     O    0.01618   0.99573   0.34531   1.000
    O18     O    0.03861   0.85614   0.36507   1.000
    O19     O    0.86913   0.03685   0.36325   1.000
    Zr20    Zr   0.44160   0.43101   0.41196   1.000
    O21     O    0.36469   0.35138   0.42077   1.000
    Zr22    Zr   0.55844   0.56896   0.58800   1.000
    O23     O    0.63535   0.64860   0.57919   1.000
    Zr24    Zr   0.06282   0.07241   0.68108   1.000
    O25     O    0.98386   0.00424   0.65409   1.000
    O26     O    0.09790   0.10402   0.75247   1.000
    O27     O    0.96144   0.14383   0.63435   1.000
    O28     O    0.13091   0.96312   0.63617   1.000
    Zr29    Zr   0.43170   0.44093   0.91199   1.000
    O30     O    0.35167   0.36444   0.92080   1.000
    Zr31    Zr   0.92836   0.93647   0.81877   1.000
    O32     O    0.99605   0.01592   0.84581   1.000
    O33     O    0.85674   0.03807   0.86553   1.000
    O34     O    0.89709   0.90113   0.74739   1.000
    O35     O    0.03738   0.86864   0.86374   1.000
    O36     O    0.46388   0.61939   0.56687   1.000
    O37     O    0.38323   0.52406   0.43516   1.000
    O38     O    0.09791   0.09817   0.60470   1.000
    O39     O    0.61891   0.46417   0.06691   1.000
    O40     O    0.47558   0.61733   0.06472   1.000
    O41     O    0.61681   0.47591   0.56480   1.000
    O42     O    0.90251   0.90144   0.89518   1.000
    O43     O    0.90213   0.90180   0.39471   1.000
    O44     O    0.09752   0.09854   0.10479   1.000
    O45     O    0.52445   0.38265   0.93525   1.000
    O46     O    0.38112   0.53581   0.93304   1.000
    O47     O    0.53616   0.38058   0.43309   1.000
loop_
    _geom_bond_atom_site_label_1
    _geom_bond_atom_site_label_2
    _geom_bond_distance
    _geom_bond_site_symmetry_2
    _ccdc_geom_bond_type
    Zr8    O9        1.72256      .   S
    N2     O9        4.07714      .   S
    Zr8    O10       1.71668  1_545   S
    N5     O10       4.05780  1_655   S
    Zr8    O11       1.70388  1_455   S
    N1     O11       4.16381      .   S
    Zr8    O12       1.66961  1_545   S
    N0     O12       4.09008  1_556   S
    Zr13   O14       1.66041      .   S
    N5     O14       3.94245      .   S
    Zr15   O16       1.71695      .   S
    N5     O16       4.06813      .   S
    Zr15   O17       1.71938  1_655   S
    N2     O17       4.06231  1_545   S
    Zr15   O18       1.67354  1_655   S
    N4     O18       4.09879      .   S
    Zr15   O19       1.70670  1_565   S
    N3     O19       4.16871      .   S
    Zr20   O21       1.66043      .   S
    N2     O21       3.94246      .   S
    Zr22   O23       1.66043      .   S
    N6     O23       3.94247      .   S
    Zr24   O25       1.71652  1_455   S
    N6     O25       4.05643  1_565   S
    Zr24   O26       1.72335      .   S
    N7     O26       4.07888      .   S
    Zr24   O27       1.66925  1_455   S
    N3     O27       4.09034      .   S
    Zr24   O28       1.70263  1_545   S
    N4     O28       4.16050      .   S
    Zr29   O30       1.66041      .   S
    N7     O30       3.94247      .   S
    Zr31   O32       1.71662  1_565   S
    N7     O32       4.05766  1_455   S
    Zr31   O33       1.66947  1_565   S
    N1     O33       4.08986  1_554   S
    Zr31   O34       1.72261      .   S
    N6     O34       4.07731      .   S
    Zr31   O35       1.70378  1_655   S
    N0     O35       4.16350      .   S
    N4     O36       2.90797      .   S
    Zr22   O36       1.27458      .   S
    N4     O37       2.95067      .   S
    Zr20   O37       1.29274      .   S
    Zr24   O38       1.68489      .   S
    N2     O38       3.97841      .   S
    Zr13   O39       1.27353      .   S
    N1     O39       2.90466      .   S
    Zr13   O40       1.29353      .   S
    N0     O40       2.95297  1_556   S
    Zr22   O41       1.29274      .   S
    N3     O41       2.95065      .   S
    N5     O42       3.97948  1_554   S
    Zr31   O42       1.68527      .   S
    Zr15   O43       1.69133      .   S
    N6     O43       3.98922      .   S
    Zr8    O44       1.68538      .   S
    N7     O44       3.97975  1_556   S
    Zr29   O45       1.29349      .   S
    N1     O45       2.95279  1_554   S
    Zr29   O46       1.27332      .   S
    N0     O46       2.90474      .   S
    Zr20   O47       1.27459      .   S
    N3     O47       2.90797      .   S
