# CIF file generated by openbabel 2.4.90, see http://openbabel.sf.net
data_I
_chemical_name_common ''
_cell_length_a 13.019
_cell_length_b 12.951
_cell_length_c 21.117
_cell_angle_alpha 85.765
_cell_angle_beta 85.797
_cell_angle_gamma 69.843
_space_group_name_H-M_alt 'P 1'
_space_group_name_Hall 'P 1'
loop_
    _symmetry_equiv_pos_as_xyz
    x,y,z
loop_
    _atom_site_label
    _atom_site_type_symbol
    _atom_site_fract_x
    _atom_site_fract_y
    _atom_site_fract_z
    _atom_site_occupancy
    N0      N    0.27458   0.73902   0.99747   1.000
    N1      N    0.72544   0.26096   0.00249   1.000
    N2      N    0.18138   0.16371   0.42519   1.000
    N3      N    0.73888   0.27451   0.49754   1.000
    N4      N    0.26116   0.72546   0.50243   1.000
    N5      N    0.83693   0.81790   0.07476   1.000
    N6      N    0.81865   0.83627   0.57478   1.000
    N7      N    0.16311   0.18208   0.92520   1.000
    Zr8     Zr   0.07167   0.06351   0.18121   1.000
    O9      O    0.09161   0.09244   0.10260   1.000
    O10     O    0.10294   0.09885   0.25259   1.000
    O11     O    0.00399   0.98405   0.15416   1.000
    O12     O    0.96265   0.13134   0.13624   1.000
    O13     O    0.10343   0.10464   0.10698   1.000
    O14     O    0.14329   0.96191   0.13444   1.000
    Zr15    Zr   0.56834   0.55906   0.08798   1.000
    O16     O    0.64837   0.63554   0.07917   1.000
    O17     O    0.62542   0.46398   0.07386   1.000
    O18     O    0.61240   0.46436   0.05995   1.000
    O19     O    0.47569   0.61170   0.05741   1.000
    O20     O    0.47547   0.62295   0.07202   1.000
    Zr21    Zr   0.93722   0.92756   0.31800   1.000
    O22     O    0.90824   0.90770   0.39689   1.000
    O23     O    0.90214   0.89595   0.24694   1.000
    O24     O    0.01618   0.99573   0.34531   1.000
    O25     O    0.03861   0.85614   0.36507   1.000
    O26     O    0.86913   0.03685   0.36325   1.000
    O27     O    0.89602   0.89591   0.39252   1.000
    Zr28    Zr   0.44160   0.43101   0.41196   1.000
    O29     O    0.37759   0.52412   0.42787   1.000
    O30     O    0.53592   0.38708   0.44009   1.000
    O31     O    0.53640   0.37407   0.42610   1.000
    O32     O    0.38887   0.52400   0.44245   1.000
    O33     O    0.36469   0.35138   0.42077   1.000
    Zr34    Zr   0.55844   0.56896   0.58800   1.000
    O35     O    0.63535   0.64860   0.57919   1.000
    O36     O    0.62245   0.47585   0.57209   1.000
    O37     O    0.61117   0.47597   0.55752   1.000
    O38     O    0.46412   0.61289   0.55987   1.000
    O39     O    0.46364   0.62590   0.57386   1.000
    Zr40    Zr   0.06282   0.07241   0.68108   1.000
    O41     O    0.98386   0.00424   0.65409   1.000
    O42     O    0.10402   0.10407   0.60689   1.000
    O43     O    0.09180   0.09227   0.60252   1.000
    O44     O    0.09790   0.10402   0.75247   1.000
    O45     O    0.96144   0.14383   0.63435   1.000
    O46     O    0.13091   0.96312   0.63617   1.000
    Zr47    Zr   0.43170   0.44093   0.91199   1.000
    O48     O    0.52456   0.37703   0.92794   1.000
    O49     O    0.52434   0.38828   0.94255   1.000
    O50     O    0.35167   0.36444   0.92080   1.000
    O51     O    0.37461   0.53600   0.92607   1.000
    O52     O    0.38764   0.53562   0.94001   1.000
    Zr53    Zr   0.92836   0.93647   0.81877   1.000
    O54     O    0.90842   0.90754   0.89737   1.000
    O55     O    0.89661   0.89534   0.89299   1.000
    O56     O    0.99605   0.01592   0.84581   1.000
    O57     O    0.85674   0.03807   0.86553   1.000
    O58     O    0.89709   0.90113   0.74739   1.000
    O59     O    0.03738   0.86864   0.86374   1.000
loop_
    _geom_bond_atom_site_label_1
    _geom_bond_atom_site_label_2
    _geom_bond_distance
    _geom_bond_site_symmetry_2
    _ccdc_geom_bond_type
    Zr8    O9        1.69562      .   S
    N7     O9        3.97988  1_556   S
    Zr8    O10       1.72256      .   S
    N2     O10       4.07714      .   S
    Zr8    O11       1.71668  1_545   S
    N5     O11       4.05780  1_655   S
    Zr8    O12       1.70388  1_455   S
    N1     O12       4.16381      .   S
    Zr8    O13       1.68671      .   S
    N7     O13       3.98452  1_556   S
    Zr8    O14       1.66961  1_545   S
    N0     O14       4.09008  1_556   S
    Zr15   O16       1.66041      .   S
    N5     O16       3.94245      .   S
    Zr15   O17       1.24434      .   S
    N1     O17       2.96964      .   S
    Zr15   O18       1.32519      .   S
    N1     O18       2.84887      .   S
    Zr15   O19       1.34859      .   S
    N0     O19       2.89457  1_556   S
    Zr15   O20       1.26060      .   S
    N0     O20       3.02041  1_556   S
    Zr21   O22       1.70162      .   S
    N6     O22       3.98930      .   S
    Zr21   O23       1.71695      .   S
    N5     O23       4.06813      .   S
    Zr21   O24       1.71938  1_655   S
    N2     O24       4.06231  1_545   S
    Zr21   O25       1.67354  1_655   S
    N4     O25       4.09879      .   S
    Zr21   O26       1.70670  1_565   S
    N3     O26       4.16871      .   S
    Zr21   O27       1.69256      .   S
    N6     O27       3.99403      .   S
    Zr28   O29       1.26000      .   S
    N4     O29       3.01803      .   S
    Zr28   O30       1.32658      .   S
    N3     O30       2.85186      .   S
    Zr28   O31       1.24515      .   S
    N3     O31       2.97330      .   S
    Zr28   O32       1.34763      .   S
    N4     O32       2.89236      .   S
    Zr28   O33       1.66043      .   S
    N2     O33       3.94246      .   S
    Zr34   O35       1.66043      .   S
    N6     O35       3.94247      .   S
    Zr34   O36       1.26002      .   S
    N3     O36       3.01799      .   S
    Zr34   O37       1.34761      .   S
    N3     O37       2.89236      .   S
    Zr34   O38       1.32656      .   S
    N4     O38       2.85186      .   S
    Zr34   O39       1.24514      .   S
    N4     O39       2.97330      .   S
    Zr40   O41       1.71652  1_455   S
    N6     O41       4.05643  1_565   S
    Zr40   O42       1.68643      .   S
    N2     O42       3.98300      .   S
    Zr40   O43       1.69492      .   S
    N2     O43       3.97873      .   S
    Zr40   O44       1.72335      .   S
    N7     O44       4.07888      .   S
    Zr40   O45       1.66925  1_455   S
    N3     O45       4.09034      .   S
    Zr40   O46       1.70263  1_545   S
    N4     O46       4.16050      .   S
    Zr47   O48       1.26056      .   S
    N1     O48       3.02022  1_554   S
    Zr47   O49       1.34854      .   S
    N1     O49       2.89441  1_554   S
    Zr47   O50       1.66041      .   S
    N7     O50       3.94247      .   S
    Zr47   O51       1.24411      .   S
    N0     O51       2.96992      .   S
    Zr47   O52       1.32510      .   S
    N0     O52       2.84880      .   S
    Zr53   O54       1.69552      .   S
    N5     O54       3.97961  1_554   S
    Zr53   O55       1.68659      .   S
    N5     O55       3.98426  1_554   S
    Zr53   O56       1.71662  1_565   S
    N7     O56       4.05766  1_455   S
    Zr53   O57       1.66947  1_565   S
    N1     O57       4.08986  1_554   S
    Zr53   O58       1.72261      .   S
    N6     O58       4.07731      .   S
    Zr53   O59       1.70378  1_655   S
    N0     O59       4.16350      .   S
