# CIF file generated by openbabel 2.4.90, see http://openbabel.sf.net
data_I
_chemical_name_common ''
_cell_length_a 6.902
_cell_length_b 7.896
_cell_length_c 10.093
_cell_angle_alpha 93.851
_cell_angle_beta 109.485
_cell_angle_gamma 105.528
_space_group_name_H-M_alt 'P 1'
_space_group_name_Hall 'P 1'
loop_
    _symmetry_equiv_pos_as_xyz
    x,y,z
loop_
    _atom_site_label
    _atom_site_type_symbol
    _atom_site_fract_x
    _atom_site_fract_y
    _atom_site_fract_z
    _atom_site_occupancy
    Zr0     Zr   0.48050   0.02006   0.03596   1.000
    Zr1     Zr   0.48050   0.02007   0.53594   1.000
    N2      N    0.11378   0.34952   0.82377   1.000
    N3      N    0.11378   0.34952   0.32025   1.000
    O4      O    0.30251   0.16974   0.41196   1.000
    O5      O    0.29023   0.19140   0.71807   1.000
    O6      O    0.29024   0.19140   0.21632   1.000
    O7      O    0.30251   0.16974   0.91782   1.000
loop_
    _geom_bond_atom_site_label_1
    _geom_bond_atom_site_label_2
    _geom_bond_distance
    _geom_bond_site_symmetry_2
    _ccdc_geom_bond_type
    Zr1    O4        2.10291      .   S
    N3     O4        2.22053      .   S
    Zr1    O5        3.02677      .   S
    N2     O5        2.38370      .   S
    Zr0    O6        3.01395      .   S
    N3     O6        2.37337      .   S
    Zr0    O7        2.07778  1_554   S
    N2     O7        2.22693      .   S
