# CIF file generated by openbabel 2.4.90, see http://openbabel.sf.net
data_I
_chemical_name_common ''
_cell_length_a 6.902
_cell_length_b 7.896
_cell_length_c 10.093
_cell_angle_alpha 93.851
_cell_angle_beta 109.485
_cell_angle_gamma 105.528
_space_group_name_H-M_alt 'P 1'
_space_group_name_Hall 'P 1'
loop_
    _symmetry_equiv_pos_as_xyz
    x,y,z
loop_
    _atom_site_label
    _atom_site_type_symbol
    _atom_site_fract_x
    _atom_site_fract_y
    _atom_site_fract_z
    _atom_site_occupancy
    Zr0     Zr   0.48050   0.02006   0.03596   1.000
    Zr1     Zr   0.48050   0.02007   0.53594   1.000
    N2      N    0.11378   0.34952   0.82377   1.000
    O3      O    0.36145   0.22431   0.91477   1.000
    O4      O    0.34523   0.18015   0.73821   1.000
    O5      O    0.23524   0.20265   0.69793   1.000
    O6      O    0.24357   0.11517   0.92087   1.000
    N7      N    0.11378   0.34952   0.32025   1.000
    O8      O    0.34523   0.18015   0.23645   1.000
    O9      O    0.24356   0.11517   0.41090   1.000
    O10     O    0.23524   0.20264   0.19618   1.000
    O11     O    0.36145   0.22431   0.41301   1.000
loop_
    _geom_bond_atom_site_label_1
    _geom_bond_atom_site_label_2
    _geom_bond_distance
    _geom_bond_site_symmetry_2
    _ccdc_geom_bond_type
    N2     O3        2.17317      .   S
    Zr0    O3        2.25303  1_554   S
    N2     O4        2.64479      .   S
    Zr1    O4        2.86249      .   S
    N2     O5        2.16648      .   S
    Zr1    O5        3.23316      .   S
    N2     O6        2.39427      .   S
    Zr0    O6        2.02360  1_554   S
    N7     O8        2.63604      .   S
    Zr0    O8        2.84842      .   S
    N7     O9        2.37311      .   S
    Zr1    O9        2.05884      .   S
    N7     O10       2.15443      .   S
    Zr0    O10       3.22162      .   S
    N7     O11       2.17661      .   S
    Zr1    O11       2.26129      .   S
