# CIF file generated by openbabel 2.4.90, see http://openbabel.sf.net
data_I
_chemical_name_common 'CdH8C12(NO2)2'
_cell_length_a 13.07
_cell_length_b 15.248
_cell_length_c 19.142
_cell_angle_alpha 89.984
_cell_angle_beta 89.996
_cell_angle_gamma 89.964
_space_group_name_H-M_alt 'P 1'
_space_group_name_Hall 'P 1'
loop_
    _symmetry_equiv_pos_as_xyz
    x,y,z
loop_
    _atom_site_label
    _atom_site_type_symbol
    _atom_site_fract_x
    _atom_site_fract_y
    _atom_site_fract_z
    _atom_site_occupancy
    Cd0     Cd   0.32851   0.22740   0.83137   1.000
    Cd1     Cd   0.17105   0.77199   0.33125   1.000
    Cd2     Cd   0.67147   0.72728   0.66857   1.000
    Cd3     Cd   0.82893   0.27224   0.16871   1.000
    Cd4     Cd   0.67146   0.77262   0.16861   1.000
    Cd5     Cd   0.82892   0.22803   0.66873   1.000
    Cd6     Cd   0.32850   0.27274   0.33140   1.000
    Cd7     Cd   0.17105   0.72778   0.83127   1.000
    H8      H    0.50901   0.27805   0.73109   1.000
    H9      H    0.61610   0.40649   0.69206   1.000
    H10     H    0.41496   0.57488   0.81011   1.000
    H11     H    0.31378   0.44111   0.84268   1.000
    H12     H    0.46745   0.09092   0.91700   1.000
    H13     H    0.60218   0.08890   0.01201   1.000
    H14     H    0.51299   0.35227   0.06437   1.000
    H15     H    0.38454   0.34559   0.96573   1.000
    H16     H    0.00000   0.72189   0.23119   1.000
    H17     H    0.88280   0.59380   0.19234   1.000
    H18     H    0.08343   0.42472   0.31019   1.000
    H19     H    0.18525   0.55818   0.34266   1.000
    H20     H    0.03179   0.90874   0.41668   1.000
    H21     H    0.89802   0.91084   0.51233   1.000
    H22     H    0.00000   0.64779   0.56491   1.000
    H23     H    0.11586   0.65442   0.46571   1.000
    H24     H    0.49106   0.77800   0.76895   1.000
    H25     H    0.38399   0.90653   0.80801   1.000
    H26     H    0.58507   0.07480   0.68993   1.000
    H27     H    0.68619   0.94092   0.65729   1.000
    H28     H    0.53284   0.59080   0.58297   1.000
    H29     H    0.39812   0.58874   0.48795   1.000
    H30     H    0.48700   0.85206   0.43538   1.000
    H31     H    0.61544   0.84541   0.53404   1.000
    H32     H    0.00941   0.22193   0.26886   1.000
    H33     H    0.11713   0.09371   0.30774   1.000
    H34     H    0.91660   0.92491   0.18983   1.000
    H35     H    0.81482   0.05853   0.15730   1.000
    H36     H    0.96826   0.40899   0.08327   1.000
    H37     H    0.10197   0.41101   0.98760   1.000
    H38     H    0.01170   0.14807   0.93507   1.000
    H39     H    0.88418   0.15480   0.03428   1.000
    H40     H    0.49094   0.72198   0.26887   1.000
    H41     H    0.38386   0.59353   0.30790   1.000
    H42     H    0.58501   0.42514   0.18986   1.000
    H43     H    0.68619   0.55891   0.15729   1.000
    H44     H    0.53253   0.90911   0.08297   1.000
    H45     H    0.39780   0.91112   0.98795   1.000
    H46     H    0.48700   0.64776   0.93560   1.000
    H47     H    0.61545   0.65445   0.03424   1.000
    H48     H    0.00943   0.27814   0.76880   1.000
    H49     H    0.11717   0.40622   0.80763   1.000
    H50     H    0.91654   0.57530   0.68979   1.000
    H51     H    0.81472   0.44185   0.65732   1.000
    H52     H    0.96820   0.09129   0.58330   1.000
    H53     H    0.10197   0.08918   0.48766   1.000
    H54     H    0.01166   0.35223   0.43506   1.000
    H55     H    0.88412   0.34560   0.53427   1.000
    H56     H    0.50891   0.22201   0.23101   1.000
    H57     H    0.61598   0.09348   0.19195   1.000
    H58     H    0.41490   0.92523   0.31005   1.000
    H59     H    0.31378   0.05910   0.34268   1.000
    H60     H    0.46717   0.40922   0.41698   1.000
    H61     H    0.60190   0.41127   0.51199   1.000
    H62     H    0.51296   0.14798   0.56460   1.000
    H63     H    0.38451   0.15463   0.46594   1.000
    H64     H    0.00000   0.77810   0.73111   1.000
    H65     H    0.88285   0.90631   0.69223   1.000
    H66     H    0.08337   0.07511   0.81016   1.000
    H67     H    0.18516   0.94150   0.84267   1.000
    H68     H    0.03173   0.59103   0.91671   1.000
    H69     H    0.89801   0.58901   0.01237   1.000
    H70     H    0.00000   0.85196   0.06490   1.000
    H71     H    0.11578   0.84524   0.96570   1.000
    C72     C    0.49132   0.34481   0.74739   1.000
    C73     C    0.55049   0.41570   0.72634   1.000
    C74     C    0.52442   0.49999   0.74905   1.000
    C75     C    0.43838   0.51017   0.79186   1.000
    C76     C    0.38204   0.43613   0.81023   1.000
    C77     C    0.58588   0.57773   0.72456   1.000
    C78     C    0.48118   0.14752   0.95047   1.000
    C79     C    0.55429   0.14630   0.00313   1.000
    C80     C    0.56829   0.22125   0.04414   1.000
    C81     C    0.50516   0.29379   0.03220   1.000
    C82     C    0.43448   0.29036   0.97789   1.000
    C83     C    0.65535   0.22475   0.09567   1.000
    C84     C    0.00793   0.65506   0.24752   1.000
    C85     C    0.94841   0.58437   0.22658   1.000
    C86     C    0.97414   0.49998   0.24927   1.000
    C87     C    0.06023   0.48951   0.29197   1.000
    C88     C    0.11694   0.56337   0.31027   1.000
    C89     C    0.91241   0.42244   0.22468   1.000
    C90     C    0.01849   0.85222   0.45035   1.000
    C91     C    0.94596   0.85349   0.50337   1.000
    C92     C    0.93256   0.77865   0.54463   1.000
    C93     C    0.00000   0.70619   0.53258   1.000
    C94     C    0.06583   0.70954   0.47794   1.000
    C95     C    0.84593   0.77499   0.59648   1.000
    C96     C    0.50874   0.84476   0.75266   1.000
    C97     C    0.44956   0.91570   0.77370   1.000
    C98     C    0.47565   0.99997   0.75101   1.000
    C99     C    0.56164   0.01009   0.70815   1.000
    C100    C    0.61797   0.93600   0.68979   1.000
    C101    C    0.41411   0.07774   0.77546   1.000
    C102    C    0.51903   0.64739   0.54945   1.000
    C103    C    0.44593   0.64614   0.49679   1.000
    C104    C    0.43182   0.72108   0.45573   1.000
    C105    C    0.49490   0.79360   0.46759   1.000
    C106    C    0.56556   0.79020   0.52192   1.000
    C107    C    0.34475   0.72462   0.40422   1.000
    C108    C    0.99202   0.15513   0.25253   1.000
    C109    C    0.05156   0.08437   0.27347   1.000
    C110    C    0.02581   0.00003   0.25079   1.000
    C111    C    0.93979   0.00000   0.20803   1.000
    C112    C    0.88308   0.06360   0.18975   1.000
    C113    C    0.08761   0.92242   0.27536   1.000
    C114    C    0.98154   0.35247   0.04960   1.000
    C115    C    0.05405   0.35372   0.00000   1.000
    C116    C    0.06744   0.27886   0.95533   1.000
    C117    C    0.00428   0.20646   0.96739   1.000
    C118    C    0.93420   0.20988   0.02204   1.000
    C119    C    0.15402   0.27510   0.90345   1.000
    C120    C    0.50863   0.65522   0.25257   1.000
    C121    C    0.44947   0.58432   0.27362   1.000
    C122    C    0.47554   0.50003   0.25092   1.000
    C123    C    0.56159   0.48985   0.20811   1.000
    C124    C    0.61792   0.56389   0.18974   1.000
    C125    C    0.41409   0.42229   0.27541   1.000
    C126    C    0.51880   0.85251   0.04949   1.000
    C127    C    0.44569   0.85373   0.00000   1.000
    C128    C    0.43169   0.77878   0.95582   1.000
    C129    C    0.49484   0.70624   0.96777   1.000
    C130    C    0.56550   0.70967   0.02208   1.000
    C131    C    0.34464   0.77527   0.90430   1.000
    C132    C    0.99204   0.34496   0.75245   1.000
    C133    C    0.05155   0.41566   0.77341   1.000
    C134    C    0.02583   0.50004   0.75071   1.000
    C135    C    0.93973   0.51051   0.70801   1.000
    C136    C    0.88304   0.43666   0.68971   1.000
    C137    C    0.08755   0.57758   0.77530   1.000
    C138    C    0.98150   0.14781   0.54964   1.000
    C139    C    0.05402   0.14653   0.49661   1.000
    C140    C    0.06743   0.22138   0.45535   1.000
    C141    C    0.00426   0.29383   0.46739   1.000
    C142    C    0.93415   0.29048   0.52204   1.000
    C143    C    0.15405   0.22503   0.40350   1.000
    C144    C    0.49122   0.15526   0.24730   1.000
    C145    C    0.55041   0.08432   0.22627   1.000
    C146    C    0.52432   0.00005   0.24896   1.000
    C147    C    0.43834   0.00000   0.29183   1.000
    C148    C    0.38199   0.06402   0.31017   1.000
    C149    C    0.58587   0.92228   0.22452   1.000
    C150    C    0.48099   0.35262   0.45049   1.000
    C151    C    0.55405   0.35389   0.50318   1.000
    C152    C    0.56817   0.27894   0.54422   1.000
    C153    C    0.50505   0.20644   0.53239   1.000
    C154    C    0.43444   0.20983   0.47804   1.000
    C155    C    0.65521   0.27541   0.59576   1.000
    C156    C    0.00796   0.84489   0.74745   1.000
    C157    C    0.94842   0.91565   0.72650   1.000
    C158    C    0.97416   0.99999   0.74919   1.000
    C159    C    0.06019   0.01035   0.79194   1.000
    C160    C    0.11689   0.93642   0.81024   1.000
    C161    C    0.91237   0.07760   0.72462   1.000
    C162    C    0.01843   0.64756   0.95037   1.000
    C163    C    0.94594   0.64631   0.00341   1.000
    C164    C    0.93253   0.72117   0.04464   1.000
    C165    C    0.00000   0.79357   0.03259   1.000
    C166    C    0.06575   0.79016   0.97793   1.000
    C167    C    0.84596   0.72492   0.09654   1.000
    N168    N    0.40811   0.35459   0.78878   1.000
    N169    N    0.42366   0.21910   0.93669   1.000
    N170    N    0.09120   0.64499   0.28881   1.000
    N171    N    0.07605   0.78069   0.43651   1.000
    N172    N    0.59190   0.85447   0.71121   1.000
    N173    N    0.57647   0.71896   0.56319   1.000
    N174    N    0.90881   0.14520   0.21118   1.000
    N175    N    0.92398   0.28101   0.06347   1.000
    N176    N    0.59185   0.64543   0.21119   1.000
    N177    N    0.57633   0.78093   0.06328   1.000
    N178    N    0.90876   0.35503   0.71117   1.000
    N179    N    0.92393   0.21933   0.56348   1.000
    N180    N    0.40808   0.14556   0.28877   1.000
    N181    N    0.42349   0.28108   0.43679   1.000
    N182    N    0.09117   0.85483   0.78879   1.000
    N183    N    0.07601   0.71902   0.93652   1.000
    O184    O    0.56899   0.65201   0.75301   1.000
    O185    O    0.64907   0.56653   0.67495   1.000
    O186    O    0.66177   0.29225   0.13543   1.000
    O187    O    0.71988   0.16305   0.09498   1.000
    O188    O    0.92914   0.34804   0.25315   1.000
    O189    O    0.84942   0.43374   0.17503   1.000
    O190    O    0.83962   0.70728   0.63603   1.000
    O191    O    0.78144   0.83674   0.59618   1.000
    O192    O    0.43099   0.15203   0.74701   1.000
    O193    O    0.35093   0.06657   0.82507   1.000
    O194    O    0.33823   0.79215   0.36444   1.000
    O195    O    0.28023   0.66297   0.40494   1.000
    O196    O    0.07085   0.84803   0.24693   1.000
    O197    O    0.15060   0.93366   0.32500   1.000
    O198    O    0.16035   0.20734   0.86397   1.000
    O199    O    0.21847   0.33682   0.90364   1.000
    O200    O    0.43099   0.34801   0.24697   1.000
    O201    O    0.35090   0.43348   0.32502   1.000
    O202    O    0.33821   0.70776   0.86454   1.000
    O203    O    0.28010   0.83697   0.90498   1.000
    O204    O    0.07083   0.65198   0.74684   1.000
    O205    O    0.15055   0.56627   0.82495   1.000
    O206    O    0.16035   0.29274   0.36395   1.000
    O207    O    0.21854   0.16327   0.40380   1.000
    O208    O    0.56898   0.84799   0.25297   1.000
    O209    O    0.64904   0.93344   0.17491   1.000
    O210    O    0.66175   0.20788   0.63552   1.000
    O211    O    0.71976   0.33704   0.59501   1.000
    O212    O    0.92912   0.15199   0.75305   1.000
    O213    O    0.84937   0.06636   0.67498   1.000
    O214    O    0.83962   0.79268   0.13601   1.000
    O215    O    0.78150   0.66321   0.09633   1.000
loop_
    _geom_bond_atom_site_label_1
    _geom_bond_atom_site_label_2
    _geom_bond_distance
    _geom_bond_site_symmetry_2
    _ccdc_geom_bond_type
    C115   C114      1.34168  1_455   S
    C115   C116      1.43694  1_554   S
    C115   H37       1.10109  1_554   S
    C127   C126      1.34568      .   S
    C127   C128      1.43372  1_554   S
    C127   H45       1.10011  1_554   S
    C79    H13       1.08902      .   S
    C79    C80       1.39876      .   S
    C79    C78       1.38908  1_554   S
    C163   H69       1.08885      .   S
    C163   C164      1.39887      .   S
    C163   C162      1.38890  1_654   S
    C118   H39       1.09006      .   S
    C118   N175      1.35031      .   S
    C118   C117      1.39131  1_654   S
    C130   H47       1.09019      .   S
    C130   N177      1.35033      .   S
    C130   C129      1.39171  1_554   S
    C81    C80       1.39838      .   S
    C81    H14       1.08865      .   S
    C81    C82       1.39171  1_554   S
    C165   C164      1.43197  1_455   S
    C165   H70       1.08435      .   S
    C165   C166      1.35489  1_554   S
    C80    C83       1.50676      .   S
    C164   C167      1.50666      .   S
    C126   N177      1.35096      .   S
    C126   H44       1.09001      .   S
    C114   N175      1.35082      .   S
    C114   H36       1.09007      .   S
    N177   Cd4       2.37226      .   S
    N175   Cd3       2.37044      .   S
    O187   C83       1.26323      .   S
    C83    O186      1.28318      .   S
    O215   C167      1.26344      .   S
    C167   O214      1.28279      .   S
    O186   Cd3       2.29595      .   S
    O214   Cd4       2.30516      .   S
    H43    C124      1.08977      .   S
    H35    C112      1.08986      .   S
    Cd4    O209      2.47241      .   S
    Cd4    N176      2.34725      .   S
    Cd4    O208      2.39188      .   S
    Cd3    O189      2.48024      .   S
    Cd3    N174      2.34528      .   S
    Cd3    O188      2.38060      .   S
    O209   C149      1.26986      .   S
    O189   C89       1.26918      .   S
    C124   C123      1.39323      .   S
    C124   N176      1.35289      .   S
    C112   C111      1.26940      .   S
    C112   N174      1.35282      .   S
    H34    C111      1.23486  1_565   S
    H42    C123      1.09046      .   S
    H57    C145      1.08881      .   S
    H17    C85       1.08877      .   S
    C111   C110      1.39079  1_655   S
    C123   C122      1.40004      .   S
    N174   C108      1.35377      .   S
    N176   C120      1.35380      .   S
    C149   C146      1.50706  1_565   S
    C149   O208      1.27608      .   S
    C89    C86       1.50732      .   S
    C89    O188      1.27705      .   S
    C145   C144      1.38913      .   S
    C145   C146      1.39869      .   S
    C85    C84       1.38897  1_655   S
    C85    C86       1.39870      .   S
    H56    C144      1.08944      .   S
    H16    C84       1.07069      .   S
    O196   C113      1.27719      .   S
    O196   Cd1       2.37949      .   S
    O200   C125      1.27599      .   S
    O200   Cd6       2.39254      .   S
    C144   N180      1.35380      .   S
    C84    N170      1.35379      .   S
    C146   C147      1.39144      .   S
    C86    C87       1.39986  1_655   S
    C110   C109      1.39871      .   S
    C110   C113      1.50744  1_545   S
    C122   C121      1.39870      .   S
    C122   C125      1.50693      .   S
    C108   H32       1.08955  1_655   S
    C108   C109      1.38898  1_655   S
    C120   H40       1.08947      .   S
    C120   C121      1.38912      .   S
    C109   H33       1.08876      .   S
    C121   H41       1.08880      .   S
    C113   O197      1.26903      .   S
    C125   O201      1.26995      .   S
    N180   C148      1.35286      .   S
    N180   Cd6       2.34660      .   S
    N170   C88       1.35287      .   S
    N170   Cd1       2.34574      .   S
    C147   H58       1.23112  1_545   S
    C147   C148      1.27197      .   S
    C87    H18       1.09049      .   S
    C87    C88       1.39329      .   S
    C148   H59       1.08976      .   S
    C88    H19       1.08990      .   S
    O197   Cd1       2.48215      .   S
    O201   Cd6       2.47164      .   S
    Cd1    O194      2.29648      .   S
    Cd1    N171      2.37032      .   S
    Cd6    O206      2.30438      .   S
    Cd6    N181      2.37230      .   S
    O206   C143      1.28284      .   S
    O194   C107      1.28313      .   S
    C143   O207      1.26339      .   S
    C143   C140      1.50662      .   S
    C107   O195      1.26332      .   S
    C107   C104      1.50677      .   S
    H20    C90       1.09006      .   S
    H60    C150      1.09002      .   S
    H54    C141      1.08862      .   S
    H30    C105      1.08867      .   S
    N171   C90       1.35083      .   S
    N171   C94       1.35032      .   S
    N181   C150      1.35095      .   S
    N181   C154      1.35034      .   S
    C90    C91       1.38883  1_455   S
    C150   C151      1.38908      .   S
    C140   C141      1.39801      .   S
    C140   C139      1.39885      .   S
    C104   C105      1.39834      .   S
    C104   C103      1.39879      .   S
    H23    C94       1.09009      .   S
    H63    C154      1.09018      .   S
    C141   C142      1.39158  1_455   S
    C105   C106      1.39177      .   S
    C94    C93       1.35540      .   S
    C154   C153      1.39176      .   S
    H53    C139      1.08907      .   S
    H29    C103      1.08904      .   S
    C139   C138      1.38883  1_455   S
    C103   C102      1.38910      .   S
    C151   H61       1.08905      .   S
    C151   C152      1.39878      .   S
    C91    H21       1.08906      .   S
    C91    C92       1.39885      .   S
    C106   H31       1.09015      .   S
    C106   N173      1.35035      .   S
    C142   H55       1.09009      .   S
    C142   N179      1.35032      .   S
    C153   C152      1.39834      .   S
    C153   H62       1.08867      .   S
    C93    C92       1.43172  1_455   S
    C93    H22       1.08427      .   S
    C152   C155      1.50678      .   S
    C92    C95       1.50663      .   S
    C102   N173      1.35094      .   S
    C102   H28       1.09003      .   S
    C138   N179      1.35081      .   S
    C138   H52       1.09004      .   S
    N173   Cd2       2.37224      .   S
    N179   Cd5       2.37032      .   S
    O211   C155      1.26331      .   S
    C155   O210      1.28313      .   S
    O191   C95       1.26340      .   S
    C95    O190      1.28285      .   S
    O210   Cd5       2.29646      .   S
    O190   Cd2       2.30440      .   S
    H27    C100      1.08975      .   S
    H51    C136      1.08989      .   S
    Cd2    O185      2.47167      .   S
    Cd2    N172      2.34664      .   S
    Cd2    O184      2.39260      .   S
    Cd5    O213      2.48217      .   S
    Cd5    N178      2.34577      .   S
    Cd5    O212      2.37952      .   S
    O185   C77       1.26996      .   S
    O213   C161      1.26903      .   S
    C136   C135      1.39330      .   S
    C136   N178      1.35287      .   S
    C100   C99       1.39324  1_565   S
    C100   N172      1.35286      .   S
    H50    C135      1.09049      .   S
    H26    C99       1.09046      .   S
    H9     C73       1.08881      .   S
    H65    C157      1.08877      .   S
    C135   C134      1.39986  1_655   S
    C99    C98       1.40001  1_545   S
    N178   C132      1.35379      .   S
    N172   C96       1.35380      .   S
    C77    C74       1.50693      .   S
    C77    O184      1.27599      .   S
    C161   C158      1.50744  1_545   S
    C161   O212      1.27719      .   S
    C73    C72       1.38913      .   S
    C73    C74       1.39870      .   S
    C157   C156      1.38898  1_655   S
    C157   C158      1.39868      .   S
    H8     C72       1.08946      .   S
    H64    C156      1.07059      .   S
    O204   C137      1.27707      .   S
    O204   Cd7       2.38056      .   S
    O192   C101      1.27608      .   S
    O192   Cd0       2.39182      .   S
    C72    N168      1.35379      .   S
    C156   N182      1.35377      .   S
    C74    C75       1.40004      .   S
    C158   C159      1.39982  1_665   S
    C134   C133      1.39870      .   S
    C134   C137      1.50730      .   S
    C98    C97       1.39869      .   S
    C98    C101      1.50706  1_565   S
    C132   H48       1.08959  1_655   S
    C132   C133      1.38895  1_655   S
    C96    H24       1.08944      .   S
    C96    C97       1.38912      .   S
    C133   H49       1.08877      .   S
    C97    H25       1.08882      .   S
    C137   O205      1.26919      .   S
    C101   O193      1.26986      .   S
    N168   C76       1.35289      .   S
    N168   Cd0       2.34726      .   S
    N182   C160      1.35282      .   S
    N182   Cd7       2.34532      .   S
    C75    H10       1.09045      .   S
    C75    C76       1.39323      .   S
    C159   H66       1.09047      .   S
    C159   C160      1.39330  1_545   S
    C76    H11       1.08976      .   S
    C160   H67       1.08987      .   S
    O205   Cd7       2.48036      .   S
    O193   Cd0       2.47257      .   S
    Cd7    O202      2.29596      .   S
    Cd7    N183      2.37046      .   S
    Cd0    O198      2.30521      .   S
    Cd0    N169      2.37220      .   S
    O198   C119      1.28279      .   S
    O202   C131      1.28317      .   S
    C119   O199      1.26343      .   S
    C119   C116      1.50666      .   S
    C131   O203      1.26323      .   S
    C131   C128      1.50676      .   S
    H68    C162      1.09008      .   S
    H12    C78       1.09001      .   S
    H38    C117      1.08863      .   S
    H46    C129      1.08865      .   S
    N183   C162      1.35080      .   S
    N183   C166      1.35032      .   S
    N169   C78       1.35095      .   S
    N169   C82       1.35033      .   S
    C116   C117      1.39794      .   S
    C128   C129      1.39837      .   S
    H71    C166      1.09006      .   S
    H15    C82       1.09020      .   S
