# CIF file generated by openbabel 2.4.90, see http://openbabel.sf.net
data_I
_chemical_name_common ''
_cell_length_a 14.721
_cell_length_b 20.476
_cell_length_c 13.142
_cell_angle_alpha 89.99
_cell_angle_beta 89.928
_cell_angle_gamma 99.094
_space_group_name_H-M_alt 'P 1'
_space_group_name_Hall 'P 1'
loop_
    _symmetry_equiv_pos_as_xyz
    x,y,z
loop_
    _atom_site_label
    _atom_site_type_symbol
    _atom_site_fract_x
    _atom_site_fract_y
    _atom_site_fract_z
    _atom_site_occupancy
    P0      P    0.39367   0.04078   0.06651   1.000
    P1      P    0.39367   0.54080   0.06651   1.000
    P2      P    0.89366   0.04078   0.06651   1.000
    P3      P    0.89366   0.54080   0.06651   1.000
    P4      P    0.10637   0.20918   0.56529   1.000
    P5      P    0.10638   0.70919   0.56529   1.000
    P6      P    0.60636   0.20918   0.56529   1.000
    P7      P    0.60636   0.70919   0.56529   1.000
    P8      P    0.10632   0.45923   0.93348   1.000
    P9      P    0.10632   0.95924   0.93348   1.000
    P10     P    0.60630   0.45923   0.93348   1.000
    P11     P    0.60631   0.95924   0.93348   1.000
    P12     P    0.39361   0.29083   0.43470   1.000
    P13     P    0.39362   0.79084   0.43470   1.000
    P14     P    0.89360   0.29083   0.43470   1.000
    P15     P    0.89360   0.79084   0.43470   1.000
    H16     H    0.28596   0.10546   0.05815   1.000
    H17     H    0.28596   0.60547   0.05815   1.000
    H18     H    0.78594   0.10546   0.05815   1.000
    H19     H    0.78595   0.60547   0.05815   1.000
    H20     H    0.45989   0.99287   0.26680   1.000
    H21     H    0.45990   0.49288   0.26680   1.000
    H22     H    0.95988   0.99287   0.26680   1.000
    H23     H    0.95988   0.49288   0.26680   1.000
    H24     H    0.04442   0.04741   0.14252   1.000
    H25     H    0.04443   0.54742   0.14252   1.000
    H26     H    0.54441   0.04741   0.14252   1.000
    H27     H    0.54441   0.54742   0.14252   1.000
    H28     H    0.21407   0.14450   0.55645   1.000
    H29     H    0.21407   0.64451   0.55645   1.000
    H30     H    0.71405   0.14450   0.55645   1.000
    H31     H    0.71406   0.64451   0.55645   1.000
    H32     H    0.04026   0.25713   0.76619   1.000
    H33     H    0.04027   0.75714   0.76619   1.000
    H34     H    0.54025   0.25713   0.76619   1.000
    H35     H    0.54026   0.75714   0.76619   1.000
    H36     H    0.45585   0.20277   0.64213   1.000
    H37     H    0.45586   0.70278   0.64213   1.000
    H38     H    0.95584   0.20277   0.64213   1.000
    H39     H    0.95584   0.70278   0.64213   1.000
    H40     H    0.21403   0.39455   0.94184   1.000
    H41     H    0.21403   0.89456   0.94184   1.000
    H42     H    0.71402   0.39455   0.94184   1.000
    H43     H    0.71402   0.89456   0.94184   1.000
    H44     H    0.04009   0.50714   0.73317   1.000
    H45     H    0.04010   0.00000   0.73317   1.000
    H46     H    0.54008   0.50714   0.73317   1.000
    H47     H    0.54008   0.00000   0.73317   1.000
    H48     H    0.45556   0.45260   0.85747   1.000
    H49     H    0.45557   0.95261   0.85747   1.000
    H50     H    0.95555   0.45260   0.85747   1.000
    H51     H    0.95556   0.95261   0.85747   1.000
    H52     H    0.28592   0.35551   0.44354   1.000
    H53     H    0.28592   0.85552   0.44354   1.000
    H54     H    0.78591   0.35551   0.44354   1.000
    H55     H    0.78591   0.85552   0.44354   1.000
    H56     H    0.45972   0.24288   0.23380   1.000
    H57     H    0.45973   0.74290   0.23380   1.000
    H58     H    0.95971   0.24288   0.23380   1.000
    H59     H    0.95971   0.74290   0.23380   1.000
    H60     H    0.04413   0.29724   0.35780   1.000
    H61     H    0.04414   0.79726   0.35780   1.000
    H62     H    0.54412   0.29724   0.35785   1.000
    H63     H    0.54412   0.79726   0.35785   1.000
    C64     C    0.48199   0.06690   0.16664   1.000
    C65     C    0.48200   0.56691   0.16664   1.000
    C66     C    0.98198   0.06690   0.16664   1.000
    C67     C    0.98198   0.56691   0.16664   1.000
    C68     C    0.50191   0.14171   0.16980   1.000
    C69     C    0.50191   0.64173   0.16980   1.000
    C70     C    0.00000   0.14171   0.16980   1.000
    C71     C    0.00000   0.64173   0.16980   1.000
    C72     C    0.22349   0.27772   0.98170   1.000
    C73     C    0.22349   0.77773   0.98170   1.000
    C74     C    0.72347   0.27772   0.98170   1.000
    C75     C    0.72348   0.77773   0.98170   1.000
    C76     C    0.01821   0.18316   0.66603   1.000
    C77     C    0.01821   0.68317   0.66603   1.000
    C78     C    0.51819   0.18316   0.66603   1.000
    C79     C    0.51820   0.68317   0.66603   1.000
    C80     C    0.99800   0.10837   0.66945   1.000
    C81     C    0.99800   0.60838   0.66945   1.000
    C82     C    0.49798   0.10837   0.66945   1.000
    C83     C    0.49799   0.60839   0.66945   1.000
    O84     O    0.56620   0.92764   0.03220   1.000
    O85     O    0.12587   0.03441   0.92999   1.000
    O86     O    0.12587   0.53442   0.92999   1.000
    O87     O    0.62585   0.03441   0.92999   1.000
    C88     C    0.27655   0.47230   0.48181   1.000
    C89     C    0.27656   0.97231   0.48181   1.000
    C90     C    0.77654   0.47230   0.48181   1.000
    C91     C    0.77655   0.97231   0.48181   1.000
    C92     C    0.01799   0.43311   0.83335   1.000
    C93     C    0.01800   0.93312   0.83335   1.000
    C94     C    0.51798   0.43311   0.83335   1.000
    C95     C    0.51799   0.93312   0.83335   1.000
    C96     C    0.99807   0.35830   0.83019   1.000
    C97     C    0.99808   0.85831   0.83019   1.000
    C98     C    0.49806   0.35830   0.83019   1.000
    C99     C    0.49807   0.85831   0.83019   1.000
    C100    C    0.27650   0.22229   0.01826   1.000
    C101    C    0.27650   0.72231   0.01826   1.000
    C102    C    0.77649   0.22229   0.01826   1.000
    C103    C    0.77649   0.72231   0.01826   1.000
    C104    C    0.48178   0.31685   0.33396   1.000
    C105    C    0.48178   0.81687   0.33396   1.000
    C106    C    0.98176   0.31685   0.33396   1.000
    C107    C    0.98177   0.81687   0.33396   1.000
    C108    C    0.50199   0.39164   0.33054   1.000
    C109    C    0.50200   0.89165   0.33054   1.000
    C110    C    0.00000   0.39164   0.33054   1.000
    C111    C    0.00000   0.89165   0.33054   1.000
    C112    C    0.22343   0.02771   0.51818   1.000
    C113    C    0.22344   0.52772   0.51818   1.000
    C114    C    0.72342   0.02771   0.51818   1.000
    C115    C    0.72342   0.52772   0.51818   1.000
    O116    O    0.30511   0.06908   0.10181   1.000
    O117    O    0.30511   0.56909   0.10181   1.000
    O118    O    0.80510   0.06908   0.10181   1.000
    O119    O    0.80510   0.56909   0.10181   1.000
    O120    O    0.43378   0.07238   0.96779   1.000
    O121    O    0.43378   0.57239   0.96779   1.000
    O122    O    0.93376   0.07238   0.96779   1.000
    O123    O    0.93377   0.57239   0.96779   1.000
    O124    O    0.37412   0.46560   0.06999   1.000
    O125    O    0.37412   0.96562   0.06999   1.000
    O126    O    0.87411   0.46560   0.06999   1.000
    O127    O    0.87411   0.96562   0.06999   1.000
    O128    O    0.45331   0.04189   0.26498   1.000
    O129    O    0.45331   0.54190   0.26498   1.000
    O130    O    0.95330   0.04189   0.26498   1.000
    O131    O    0.95330   0.54190   0.26498   1.000
    O132    O    0.04214   0.17261   0.09518   1.000
    O133    O    0.04214   0.67262   0.09518   1.000
    O134    O    0.54213   0.17261   0.09518   1.000
    O135    O    0.54213   0.67262   0.09518   1.000
    O136    O    0.47292   0.16925   0.24853   1.000
    O137    O    0.47293   0.66927   0.24853   1.000
    O138    O    0.97291   0.16925   0.24853   1.000
    O139    O    0.97291   0.66927   0.24853   1.000
    O140    O    0.14814   0.26087   0.93697   1.000
    O141    O    0.14814   0.76089   0.93697   1.000
    O142    O    0.64813   0.26087   0.93697   1.000
    O143    O    0.64813   0.76089   0.93697   1.000
    O144    O    0.26173   0.33712   0.00000   1.000
    O145    O    0.26173   0.83714   0.00000   1.000
    O146    O    0.76172   0.33712   0.00000   1.000
    O147    O    0.76172   0.83714   0.00000   1.000
    O148    O    0.19503   0.18097   0.60008   1.000
    O149    O    0.19503   0.68098   0.60008   1.000
    O150    O    0.69501   0.18097   0.60008   1.000
    O151    O    0.69502   0.68098   0.60008   1.000
    O152    O    0.06622   0.17758   0.46671   1.000
    O153    O    0.06622   0.67760   0.46671   1.000
    O154    O    0.56620   0.17758   0.46671   1.000
    O155    O    0.56621   0.67760   0.46671   1.000
    O156    O    0.12579   0.28437   0.56855   1.000
    O157    O    0.12579   0.78438   0.56855   1.000
    O158    O    0.62577   0.28437   0.56855   1.000
    O159    O    0.62578   0.78438   0.56855   1.000
    O160    O    0.04699   0.20814   0.76432   1.000
    O161    O    0.04699   0.70815   0.76432   1.000
    O162    O    0.54698   0.20814   0.76432   1.000
    O163    O    0.54698   0.70815   0.76432   1.000
    O164    O    0.45734   0.07749   0.59518   1.000
    O165    O    0.45734   0.57751   0.59518   1.000
    O166    O    0.95732   0.07749   0.59518   1.000
    O167    O    0.95733   0.57750   0.59518   1.000
    O168    O    0.02705   0.08080   0.74800   1.000
    O169    O    0.02705   0.58081   0.74800   1.000
    O170    O    0.52703   0.08080   0.74800   1.000
    O171    O    0.52704   0.58081   0.74800   1.000
    O172    O    0.35145   0.48901   0.43591   1.000
    O173    O    0.35146   0.98902   0.43591   1.000
    O174    O    0.85144   0.48901   0.43591   1.000
    O175    O    0.85144   0.98902   0.43591   1.000
    O176    O    0.23870   0.41296   0.50195   1.000
    O177    O    0.23871   0.91297   0.50195   1.000
    O178    O    0.73869   0.41296   0.50195   1.000
    O179    O    0.73870   0.91297   0.50195   1.000
    O180    O    0.19488   0.43093   0.89818   1.000
    O181    O    0.19488   0.93094   0.89818   1.000
    O182    O    0.69486   0.43093   0.89818   1.000
    O183    O    0.69487   0.93094   0.89818   1.000
    O184    O    0.06621   0.42763   0.03220   1.000
    O185    O    0.06621   0.92764   0.03220   1.000
    O186    O    0.56620   0.42763   0.03220   1.000
    O187    O    0.62586   0.53442   0.92999   1.000
    O188    O    0.04668   0.45812   0.73500   1.000
    O189    O    0.04668   0.95813   0.73500   1.000
    O190    O    0.54666   0.45812   0.73500   1.000
    O191    O    0.54667   0.95813   0.73500   1.000
    O192    O    0.45784   0.32740   0.90480   1.000
    O193    O    0.45785   0.82742   0.90480   1.000
    O194    O    0.95783   0.32740   0.90480   1.000
    O195    O    0.95784   0.82742   0.90480   1.000
    O196    O    0.02706   0.33076   0.75146   1.000
    O197    O    0.02707   0.83077   0.75146   1.000
    O198    O    0.52705   0.33076   0.75146   1.000
    O199    O    0.52706   0.83077   0.75146   1.000
    O200    O    0.35185   0.23914   0.06302   1.000
    O201    O    0.35185   0.73915   0.06302   1.000
    O202    O    0.85183   0.23914   0.06302   1.000
    O203    O    0.85184   0.73915   0.06302   1.000
    O204    O    0.23826   0.16289   0.99947   1.000
    O205    O    0.23826   0.66290   0.99947   1.000
    O206    O    0.73824   0.16289   0.99947   1.000
    O207    O    0.73825   0.66290   0.99947   1.000
    O208    O    0.30496   0.31904   0.39991   1.000
    O209    O    0.30496   0.81906   0.39991   1.000
    O210    O    0.80495   0.31904   0.39991   1.000
    O211    O    0.80495   0.81906   0.39991   1.000
    O212    O    0.43377   0.32243   0.53328   1.000
    O213    O    0.43377   0.82244   0.53328   1.000
    O214    O    0.93376   0.32243   0.53328   1.000
    O215    O    0.93376   0.82244   0.53328   1.000
    O216    O    0.37420   0.21564   0.43144   1.000
    O217    O    0.37420   0.71565   0.43144   1.000
    O218    O    0.87419   0.21564   0.43144   1.000
    O219    O    0.87419   0.71565   0.43144   1.000
    O220    O    0.45299   0.29187   0.23567   1.000
    O221    O    0.45300   0.79188   0.23567   1.000
    O222    O    0.95298   0.29187   0.23567   1.000
    O223    O    0.95299   0.79188   0.23567   1.000
    O224    O    0.04265   0.42252   0.40481   1.000
    O225    O    0.04265   0.92253   0.40481   1.000
    O226    O    0.54264   0.42252   0.40481   1.000
    O227    O    0.54264   0.92253   0.40480   1.000
    O228    O    0.47294   0.41921   0.25190   1.000
    O229    O    0.47295   0.91923   0.25190   1.000
    O230    O    0.97293   0.41922   0.25199   1.000
    O231    O    0.97293   0.91923   0.25199   1.000
    O232    O    0.14853   0.01100   0.56408   1.000
    O233    O    0.14854   0.51101   0.56408   1.000
    O234    O    0.64852   0.01100   0.56408   1.000
    O235    O    0.64853   0.51101   0.56408   1.000
    O236    O    0.26128   0.08705   0.49804   1.000
    O237    O    0.26129   0.58706   0.49804   1.000
    O238    O    0.76127   0.08705   0.49804   1.000
    O239    O    0.76127   0.58706   0.49804   1.000
loop_
    _geom_bond_atom_site_label_1
    _geom_bond_atom_site_label_2
    _geom_bond_distance
    _geom_bond_site_symmetry_2
    _ccdc_geom_bond_type
    O144   C72       1.28003  1_554   S
    O145   C73       1.28003  1_554   S
    O146   C74       1.28004  1_554   S
    O147   C75       1.28004  1_554   S
    C103   O203      1.25539      .   S
    C103   C75       1.55190  1_554   S
    C103   O207      1.28126  1_554   S
    C100   O200      1.25538      .   S
    C100   C72       1.55191  1_554   S
    C100   O204      1.28126  1_554   S
    C101   O201      1.25539      .   S
    C101   C73       1.55191  1_554   S
    C101   O205      1.28126  1_554   S
    C102   O202      1.25539      .   S
    C102   C74       1.55189  1_554   S
    C102   O206      1.28125  1_554   S
    O84    P11       1.52556  1_554   S
    O186   P10       1.52557  1_554   S
    O185   P9        1.52556  1_554   S
    O184   P8        1.52556  1_554   S
    H19    O119      1.01502      .   S
    H18    O118      1.01502      .   S
    H17    O117      1.01502      .   S
    H16    O116      1.01500      .   S
    P3     O126      1.52158      .   S
    P3     O119      1.57734      .   S
    P3     C67       1.86892      .   S
    P3     O123      1.52555  1_554   S
    P2     O127      1.52109  1_545   S
    P2     O118      1.57735      .   S
    P2     C66       1.86892      .   S
    P2     O122      1.52555  1_554   S
    P1     O124      1.52158      .   S
    P1     O117      1.57735      .   S
    P1     C65       1.86892      .   S
    P1     O121      1.52556  1_554   S
    P0     O125      1.52109  1_545   S
    P0     O116      1.57736      .   S
    P0     C64       1.86892      .   S
    P0     O120      1.52555  1_554   S
    O132   C70       1.27313      .   S
    O135   C69       1.26185      .   S
    O133   C71       1.27315      .   S
    O134   C68       1.26185      .   S
    H24    C66       1.10457  1_455   S
    H25    C67       1.10457  1_455   S
    H26    C64       1.10423      .   S
    H27    C65       1.10425      .   S
    C67    C71       1.51336  1_655   S
    C67    O131      1.42858      .   S
    C66    C70       1.51334  1_655   S
    C66    O130      1.42859      .   S
    C65    C69       1.51403      .   S
    C65    O129      1.42858      .   S
    C64    C68       1.51405      .   S
    C64    O128      1.42858      .   S
    C70    O138      1.27194  1_455   S
    C71    O139      1.27191  1_455   S
    C69    O137      1.28290      .   S
    C68    O136      1.28289      .   S
    H59    O223      1.02369      .   S
    H58    O222      1.02369      .   S
    H57    O221      1.02367      .   S
    H56    O220      1.02369      .   S
    O223   C107      1.42929      .   S
    O220   C104      1.42930      .   S
    O221   C105      1.42930      .   S
    O222   C106      1.42929      .   S
    O229   C109      1.28337      .   S
    O228   C108      1.28337      .   S
    O231   C111      1.27092  1_655   S
    O230   C110      1.27095  1_655   S
    O128   H20       1.02388  1_545   S
    O129   H21       1.02388      .   S
    O130   H22       1.02387  1_545   S
    O131   H23       1.02389      .   S
    C110   C106      1.51291  1_455   S
    C110   O224      1.27394      .   S
    C108   C104      1.51368      .   S
    C108   O226      1.26198      .   S
    C109   C105      1.51368      .   S
    C109   O227      1.26187      .   S
    C111   C107      1.51291  1_455   S
    C111   O225      1.27396      .   S
    C105   H63       1.10419      .   S
    C105   P13       1.87029      .   S
    C106   H60       1.10432  1_655   S
    C106   P14       1.87029      .   S
    C107   H61       1.10433  1_655   S
    C107   P15       1.87028      .   S
    C104   H62       1.10419      .   S
    C104   P12       1.87029      .   S
    O208   P12       1.57663      .   S
    O208   H52       1.01527      .   S
    O209   P13       1.57663      .   S
    O209   H53       1.01527      .   S
    O210   P14       1.57663      .   S
    O210   H54       1.01527      .   S
    O211   P15       1.57663      .   S
    O211   H55       1.01527      .   S
    O218   P14       1.52143      .   S
    O217   P13       1.52143      .   S
    O216   P12       1.52143      .   S
    O219   P15       1.52143      .   S
    P15    O215      1.52569      .   S
    P14    O214      1.52569      .   S
    P13    O213      1.52569      .   S
    P12    O212      1.52569      .   S
    O175   C91       1.25525      .   S
    O174   C90       1.25526      .   S
    O173   C89       1.25527      .   S
    O172   C88       1.25525      .   S
    O155   P7        1.52569      .   S
    O152   P4        1.52569      .   S
    O153   P5        1.52569      .   S
    O154   P6        1.52569      .   S
    C91    O179      1.28154      .   S
    C91    C114      1.55132  1_565   S
    C90    O178      1.28154      .   S
    C90    C115      1.55163      .   S
    C89    O177      1.28153      .   S
    C89    C112      1.55131  1_565   S
    C88    O176      1.28154      .   S
    C88    C113      1.55164      .   S
    O239   C115      1.28154      .   S
    O236   C112      1.28154      .   S
    O237   C113      1.28154      .   S
    O238   C114      1.28154      .   S
    C114   O234      1.25525      .   S
    C115   O235      1.25526      .   S
    C113   O233      1.25525      .   S
    C112   O232      1.25527      .   S
    H31    O151      1.01527      .   S
    H30    O150      1.01527      .   S
    H29    O149      1.01527      .   S
    H28    O148      1.01527      .   S
    P7     O159      1.52141      .   S
    P7     O151      1.57663      .   S
    P7     C79       1.87029      .   S
    P6     O158      1.52141      .   S
    P6     O150      1.57662      .   S
    P6     C78       1.87030      .   S
    P5     O157      1.52143      .   S
    P5     O149      1.57663      .   S
    P5     C77       1.87029      .   S
    P4     O156      1.52141      .   S
    P4     O148      1.57662      .   S
    P4     C76       1.87029      .   S
    O167   C81       1.26213      .   S
    O166   C80       1.26213      .   S
    O165   C83       1.26198      .   S
    O164   C82       1.26198      .   S
    H39    C77       1.10455  1_655   S
    H36    C78       1.10422      .   S
    H37    C79       1.10423      .   S
    H38    C76       1.10456  1_655   S
    C79    C83       1.51368      .   S
    C79    O163      1.42930      .   S
    C78    C82       1.51368      .   S
    C78    O162      1.42929      .   S
    C77    C81       1.51370  1_455   S
    C77    O161      1.42929      .   S
    C76    C80       1.51368  1_455   S
    C76    O160      1.42929      .   S
    C83    O171      1.28244      .   S
    C82    O170      1.28243      .   S
    C81    O169      1.28243  1_655   S
    C80    O168      1.28243  1_655   S
    H44    O188      1.02389      .   S
    H45    O189      0.87820  1_545   S
    H46    O190      1.02388      .   S
    H47    O191      0.87819  1_545   S
    O188   C92       1.42870      .   S
    O189   C93       1.42870      .   S
    O190   C94       1.42871      .   S
    O191   C95       1.42870      .   S
    O196   C96       1.28289  1_455   S
    O197   C97       1.28289  1_455   S
    O198   C98       1.28290      .   S
    O199   C99       1.28290      .   S
    O161   H33       1.02369      .   S
    O160   H32       1.02369      .   S
    O162   H34       1.02369      .   S
    O163   H35       1.02367      .   S
    C96    C92       1.51405  1_655   S
    C96    O194      1.26189      .   S
    C97    C93       1.51403  1_655   S
    C97    O195      1.26189      .   S
    C98    C94       1.51403      .   S
    C98    O192      1.26176      .   S
    C99    C95       1.51405      .   S
    C99    O193      1.26174      .   S
    C94    H48       1.10423      .   S
    C94    P10       1.86893      .   S
    C95    H49       1.10423      .   S
    C95    P11       1.86892      .   S
    C92    H50       1.10457  1_455   S
    C92    P8        1.86892      .   S
    C93    H51       1.10457  1_455   S
    C93    P9        1.86892      .   S
    O180   P8        1.57735      .   S
    O180   H40       1.01502      .   S
    O181   P9        1.57735      .   S
    O181   H41       1.01502      .   S
    O182   P10       1.57735      .   S
    O182   H42       1.01502      .   S
    O183   P11       1.57736      .   S
    O183   H43       1.01502      .   S
    O86    P8        1.52158      .   S
    O87    P11       1.52108  1_545   S
    O187   P10       1.52156      .   S
    O85    P9        1.52110  1_545   S
    O140   C72       1.25520      .   S
    O141   C73       1.25519      .   S
    O142   C74       1.25520      .   S
    O143   C75       1.25519      .   S
