# CIF file generated by openbabel 2.4.90, see http://openbabel.sf.net
data_I
_chemical_name_common ''
_cell_length_a 14.721
_cell_length_b 20.476
_cell_length_c 13.142
_cell_angle_alpha 89.99
_cell_angle_beta 89.928
_cell_angle_gamma 99.094
_space_group_name_H-M_alt 'P 1'
_space_group_name_Hall 'P 1'
loop_
    _symmetry_equiv_pos_as_xyz
    x,y,z
loop_
    _atom_site_label
    _atom_site_type_symbol
    _atom_site_fract_x
    _atom_site_fract_y
    _atom_site_fract_z
    _atom_site_occupancy
    La0     La   0.07668   0.63886   0.91782   1.000
    La1     La   0.57667   0.13885   0.91782   1.000
    La2     La   0.57667   0.63886   0.91782   1.000
    La3     La   0.42311   0.11119   0.41780   1.000
    La4     La   0.42311   0.61120   0.41788   1.000
    La5     La   0.92310   0.11119   0.41780   1.000
    La6     La   0.92310   0.61120   0.41780   1.000
    La7     La   0.42331   0.36116   0.08217   1.000
    La8     La   0.42331   0.86117   0.08217   1.000
    La9     La   0.92329   0.36116   0.08217   1.000
    La10    La   0.92330   0.86117   0.08217   1.000
    La11    La   0.07688   0.38882   0.58211   1.000
    La12    La   0.07688   0.88883   0.58211   1.000
    La13    La   0.57686   0.38882   0.58211   1.000
    La14    La   0.57687   0.88884   0.58211   1.000
    P15     P    0.39367   0.04078   0.06651   1.000
    P16     P    0.39367   0.54080   0.06651   1.000
    P17     P    0.89366   0.04078   0.06651   1.000
    P18     P    0.89366   0.54080   0.06651   1.000
    P19     P    0.10637   0.20918   0.56529   1.000
    P20     P    0.10638   0.70919   0.56529   1.000
    P21     P    0.60636   0.20918   0.56529   1.000
    P22     P    0.60636   0.70919   0.56529   1.000
    P23     P    0.10632   0.45923   0.93348   1.000
    P24     P    0.10632   0.95924   0.93348   1.000
    P25     P    0.60630   0.45923   0.93348   1.000
    P26     P    0.60631   0.95924   0.93348   1.000
    P27     P    0.39361   0.29083   0.43470   1.000
    P28     P    0.39362   0.79084   0.43470   1.000
    P29     P    0.89360   0.29083   0.43470   1.000
    P30     P    0.89360   0.79084   0.43470   1.000
    H31     H    0.28596   0.10546   0.05815   1.000
    La32    La   0.07668   0.13885   0.91782   1.000
    H33     H    0.28596   0.60547   0.05815   1.000
    H34     H    0.78594   0.10546   0.05815   1.000
    H35     H    0.78595   0.60547   0.05815   1.000
    H36     H    0.45989   0.99287   0.26680   1.000
    H37     H    0.45990   0.49288   0.26680   1.000
    H38     H    0.95988   0.99287   0.26680   1.000
    H39     H    0.95988   0.49288   0.26680   1.000
    H40     H    0.04442   0.04741   0.14252   1.000
    H41     H    0.04443   0.54742   0.14252   1.000
    H42     H    0.54441   0.04741   0.14252   1.000
    H43     H    0.54441   0.54742   0.14252   1.000
    H44     H    0.21407   0.14450   0.55645   1.000
    H45     H    0.21407   0.64451   0.55645   1.000
    H46     H    0.71405   0.14450   0.55645   1.000
    H47     H    0.71406   0.64451   0.55645   1.000
    H48     H    0.04026   0.25713   0.76619   1.000
    H49     H    0.04027   0.75714   0.76619   1.000
    H50     H    0.54025   0.25713   0.76619   1.000
    H51     H    0.54026   0.75714   0.76619   1.000
    H52     H    0.45585   0.20277   0.64213   1.000
    H53     H    0.45586   0.70278   0.64213   1.000
    H54     H    0.95584   0.20277   0.64213   1.000
    H55     H    0.95584   0.70278   0.64213   1.000
    H56     H    0.21403   0.39455   0.94184   1.000
    H57     H    0.21403   0.89456   0.94184   1.000
    H58     H    0.71402   0.39455   0.94184   1.000
    H59     H    0.71402   0.89456   0.94184   1.000
    H60     H    0.04009   0.50714   0.73317   1.000
    H61     H    0.04010   0.00000   0.73317   1.000
    H62     H    0.54008   0.50714   0.73317   1.000
    H63     H    0.54008   0.00000   0.73317   1.000
    H64     H    0.45556   0.45260   0.85747   1.000
    H65     H    0.45557   0.95261   0.85747   1.000
    H66     H    0.95555   0.45260   0.85747   1.000
    H67     H    0.95556   0.95261   0.85747   1.000
    H68     H    0.28592   0.35551   0.44354   1.000
    H69     H    0.28592   0.85552   0.44354   1.000
    H70     H    0.78591   0.35551   0.44354   1.000
    H71     H    0.78591   0.85552   0.44354   1.000
    H72     H    0.45972   0.24288   0.23380   1.000
    H73     H    0.45973   0.74290   0.23380   1.000
    H74     H    0.95971   0.24288   0.23380   1.000
    H75     H    0.95971   0.74290   0.23380   1.000
    H76     H    0.04413   0.29724   0.35780   1.000
    H77     H    0.04414   0.79726   0.35780   1.000
    H78     H    0.54412   0.29724   0.35785   1.000
    H79     H    0.54412   0.79726   0.35785   1.000
    C80     C    0.48199   0.06690   0.16664   1.000
    C81     C    0.48200   0.56691   0.16664   1.000
    C82     C    0.98198   0.06690   0.16664   1.000
    C83     C    0.98198   0.56691   0.16664   1.000
    C84     C    0.50191   0.14171   0.16980   1.000
    C85     C    0.50191   0.64173   0.16980   1.000
    C86     C    0.00000   0.14171   0.16980   1.000
    C87     C    0.00000   0.64173   0.16980   1.000
    C88     C    0.22349   0.27772   0.98170   1.000
    C89     C    0.22349   0.77773   0.98170   1.000
    C90     C    0.72347   0.27772   0.98170   1.000
    C91     C    0.72348   0.77773   0.98170   1.000
    C92     C    0.01821   0.18316   0.66603   1.000
    C93     C    0.01821   0.68317   0.66603   1.000
    C94     C    0.51819   0.18316   0.66603   1.000
    C95     C    0.51820   0.68317   0.66603   1.000
    C96     C    0.99800   0.10837   0.66945   1.000
    C97     C    0.99800   0.60838   0.66945   1.000
    C98     C    0.49798   0.10837   0.66945   1.000
    C99     C    0.49799   0.60839   0.66945   1.000
    O100    O    0.56620   0.92764   0.03220   1.000
    O101    O    0.12587   0.03441   0.92999   1.000
    O102    O    0.12587   0.53442   0.92999   1.000
    O103    O    0.62585   0.03441   0.92999   1.000
    C104    C    0.27655   0.47230   0.48181   1.000
    C105    C    0.27656   0.97231   0.48181   1.000
    C106    C    0.77654   0.47230   0.48181   1.000
    C107    C    0.77655   0.97231   0.48181   1.000
    C108    C    0.01799   0.43311   0.83335   1.000
    C109    C    0.01800   0.93312   0.83335   1.000
    C110    C    0.51798   0.43311   0.83335   1.000
    C111    C    0.51799   0.93312   0.83335   1.000
    C112    C    0.99807   0.35830   0.83019   1.000
    C113    C    0.99808   0.85831   0.83019   1.000
    C114    C    0.49806   0.35830   0.83019   1.000
    C115    C    0.49807   0.85831   0.83019   1.000
    C116    C    0.27650   0.22229   0.01826   1.000
    C117    C    0.27650   0.72231   0.01826   1.000
    C118    C    0.77649   0.22229   0.01826   1.000
    C119    C    0.77649   0.72231   0.01826   1.000
    C120    C    0.48178   0.31685   0.33396   1.000
    C121    C    0.48178   0.81687   0.33396   1.000
    C122    C    0.98176   0.31685   0.33396   1.000
    C123    C    0.98177   0.81687   0.33396   1.000
    C124    C    0.50199   0.39164   0.33054   1.000
    C125    C    0.50200   0.89165   0.33054   1.000
    C126    C    0.00000   0.39164   0.33054   1.000
    C127    C    0.00000   0.89165   0.33054   1.000
    C128    C    0.22343   0.02771   0.51818   1.000
    C129    C    0.22344   0.52772   0.51818   1.000
    C130    C    0.72342   0.02771   0.51818   1.000
    C131    C    0.72342   0.52772   0.51818   1.000
    O132    O    0.30511   0.06908   0.10181   1.000
    O133    O    0.30511   0.56909   0.10181   1.000
    O134    O    0.80510   0.06908   0.10181   1.000
    O135    O    0.80510   0.56909   0.10181   1.000
    O136    O    0.43378   0.07238   0.96779   1.000
    O137    O    0.43378   0.57239   0.96779   1.000
    O138    O    0.93376   0.07238   0.96779   1.000
    O139    O    0.93377   0.57239   0.96779   1.000
    O140    O    0.37412   0.46560   0.06999   1.000
    O141    O    0.37412   0.96562   0.06999   1.000
    O142    O    0.87411   0.46560   0.06999   1.000
    O143    O    0.87411   0.96562   0.06999   1.000
    O144    O    0.45331   0.04189   0.26498   1.000
    O145    O    0.45331   0.54190   0.26498   1.000
    O146    O    0.95330   0.04189   0.26498   1.000
    O147    O    0.95330   0.54190   0.26498   1.000
    O148    O    0.04214   0.17261   0.09518   1.000
    O149    O    0.04214   0.67262   0.09518   1.000
    O150    O    0.54213   0.17261   0.09518   1.000
    O151    O    0.54213   0.67262   0.09518   1.000
    O152    O    0.47292   0.16925   0.24853   1.000
    O153    O    0.47293   0.66927   0.24853   1.000
    O154    O    0.97291   0.16925   0.24853   1.000
    O155    O    0.97291   0.66927   0.24853   1.000
    O156    O    0.14814   0.26087   0.93697   1.000
    O157    O    0.14814   0.76089   0.93697   1.000
    O158    O    0.64813   0.26087   0.93697   1.000
    O159    O    0.64813   0.76089   0.93697   1.000
    O160    O    0.26173   0.33712   0.00000   1.000
    O161    O    0.26173   0.83714   0.00000   1.000
    O162    O    0.76172   0.33712   0.00000   1.000
    O163    O    0.76172   0.83714   0.00000   1.000
    O164    O    0.19503   0.18097   0.60008   1.000
    O165    O    0.19503   0.68098   0.60008   1.000
    O166    O    0.69501   0.18097   0.60008   1.000
    O167    O    0.69502   0.68098   0.60008   1.000
    O168    O    0.06622   0.17758   0.46671   1.000
    O169    O    0.06622   0.67760   0.46671   1.000
    O170    O    0.56620   0.17758   0.46671   1.000
    O171    O    0.56621   0.67760   0.46671   1.000
    O172    O    0.12579   0.28437   0.56855   1.000
    O173    O    0.12579   0.78438   0.56855   1.000
    O174    O    0.62577   0.28437   0.56855   1.000
    O175    O    0.62578   0.78438   0.56855   1.000
    O176    O    0.04699   0.20814   0.76432   1.000
    O177    O    0.04699   0.70815   0.76432   1.000
    O178    O    0.54698   0.20814   0.76432   1.000
    O179    O    0.54698   0.70815   0.76432   1.000
    O180    O    0.45734   0.07749   0.59518   1.000
    O181    O    0.45734   0.57751   0.59518   1.000
    O182    O    0.95732   0.07749   0.59518   1.000
    O183    O    0.95733   0.57750   0.59518   1.000
    O184    O    0.02705   0.08080   0.74800   1.000
    O185    O    0.02705   0.58081   0.74800   1.000
    O186    O    0.52703   0.08080   0.74800   1.000
    O187    O    0.52704   0.58081   0.74800   1.000
    O188    O    0.35145   0.48901   0.43591   1.000
    O189    O    0.35146   0.98902   0.43591   1.000
    O190    O    0.85144   0.48901   0.43591   1.000
    O191    O    0.85144   0.98902   0.43591   1.000
    O192    O    0.23870   0.41296   0.50195   1.000
    O193    O    0.23871   0.91297   0.50195   1.000
    O194    O    0.73869   0.41296   0.50195   1.000
    O195    O    0.73870   0.91297   0.50195   1.000
    O196    O    0.19488   0.43093   0.89818   1.000
    O197    O    0.19488   0.93094   0.89818   1.000
    O198    O    0.69486   0.43093   0.89818   1.000
    O199    O    0.69487   0.93094   0.89818   1.000
    O200    O    0.06621   0.42763   0.03220   1.000
    O201    O    0.06621   0.92764   0.03220   1.000
    O202    O    0.56620   0.42763   0.03220   1.000
    O203    O    0.62586   0.53442   0.92999   1.000
    O204    O    0.04668   0.45812   0.73500   1.000
    O205    O    0.04668   0.95813   0.73500   1.000
    O206    O    0.54666   0.45812   0.73500   1.000
    O207    O    0.54667   0.95813   0.73500   1.000
    O208    O    0.45784   0.32740   0.90480   1.000
    O209    O    0.45785   0.82742   0.90480   1.000
    O210    O    0.95783   0.32740   0.90480   1.000
    O211    O    0.95784   0.82742   0.90480   1.000
    O212    O    0.02706   0.33076   0.75146   1.000
    O213    O    0.02707   0.83077   0.75146   1.000
    O214    O    0.52705   0.33076   0.75146   1.000
    O215    O    0.52706   0.83077   0.75146   1.000
    O216    O    0.35185   0.23914   0.06302   1.000
    O217    O    0.35185   0.73915   0.06302   1.000
    O218    O    0.85183   0.23914   0.06302   1.000
    O219    O    0.85184   0.73915   0.06302   1.000
    O220    O    0.23826   0.16289   0.99947   1.000
    O221    O    0.23826   0.66290   0.99947   1.000
    O222    O    0.73824   0.16289   0.99947   1.000
    O223    O    0.73825   0.66290   0.99947   1.000
    O224    O    0.30496   0.31904   0.39991   1.000
    O225    O    0.30496   0.81906   0.39991   1.000
    O226    O    0.80495   0.31904   0.39991   1.000
    O227    O    0.80495   0.81906   0.39991   1.000
    O228    O    0.43377   0.32243   0.53328   1.000
    O229    O    0.43377   0.82244   0.53328   1.000
    O230    O    0.93376   0.32243   0.53328   1.000
    O231    O    0.93376   0.82244   0.53328   1.000
    O232    O    0.37420   0.21564   0.43144   1.000
    O233    O    0.37420   0.71565   0.43144   1.000
    O234    O    0.87419   0.21564   0.43144   1.000
    O235    O    0.87419   0.71565   0.43144   1.000
    O236    O    0.45299   0.29187   0.23567   1.000
    O237    O    0.45300   0.79188   0.23567   1.000
    O238    O    0.95298   0.29187   0.23567   1.000
    O239    O    0.95299   0.79188   0.23567   1.000
    O240    O    0.04265   0.42252   0.40481   1.000
    O241    O    0.04265   0.92253   0.40481   1.000
    O242    O    0.54264   0.42252   0.40481   1.000
    O243    O    0.54264   0.92253   0.40480   1.000
    O244    O    0.47294   0.41921   0.25190   1.000
    O245    O    0.47295   0.91923   0.25190   1.000
    O246    O    0.97293   0.41922   0.25199   1.000
    O247    O    0.97293   0.91923   0.25199   1.000
    O248    O    0.14853   0.01100   0.56408   1.000
    O249    O    0.14854   0.51101   0.56408   1.000
    O250    O    0.64852   0.01100   0.56408   1.000
    O251    O    0.64853   0.51101   0.56408   1.000
    O252    O    0.26128   0.08705   0.49804   1.000
    O253    O    0.26129   0.58706   0.49804   1.000
    O254    O    0.76127   0.08705   0.49804   1.000
    O255    O    0.76127   0.58706   0.49804   1.000
loop_
    _geom_bond_atom_site_label_1
    _geom_bond_atom_site_label_2
    _geom_bond_distance
    _geom_bond_site_symmetry_2
    _ccdc_geom_bond_type
    O160   La7       2.58893      .   S
    O160   C88       1.28003  1_554   S
    O161   La8       2.58893      .   S
    O161   C89       1.28003  1_554   S
    O162   La9       2.58892      .   S
    O162   C90       1.28004  1_554   S
    O163   La10      2.58893      .   S
    O163   C91       1.28004  1_554   S
    C119   O219      1.25539      .   S
    C119   C91       1.55190  1_554   S
    C119   O223      1.28126  1_554   S
    C116   O216      1.25538      .   S
    C116   C88       1.55191  1_554   S
    C116   O220      1.28126  1_554   S
    C117   O217      1.25539      .   S
    C117   C89       1.55191  1_554   S
    C117   O221      1.28126  1_554   S
    C118   O218      1.25539      .   S
    C118   C90       1.55189  1_554   S
    C118   O222      1.28125  1_554   S
    O100   La8       2.40826      .   S
    O100   P26       1.52556  1_554   S
    O202   La7       2.40825      .   S
    O202   P25       1.52557  1_554   S
    O201   La10      2.40854  1_455   S
    O201   P24       1.52556  1_554   S
    O200   La9       2.40856  1_455   S
    O200   P23       1.52556  1_554   S
    H35    O135      1.01502      .   S
    H34    O134      1.01502      .   S
    H33    O133      1.01502      .   S
    H31    O132      1.01500      .   S
    O218   La9       2.56570      .   S
    O217   La8       2.56570      .   S
    O216   La7       2.56570      .   S
    O219   La10      2.56570      .   S
    P18    O142      1.52158      .   S
    P18    O135      1.57734      .   S
    P18    C83       1.86892      .   S
    P18    O139      1.52555  1_554   S
    P17    O143      1.52109  1_545   S
    P17    O134      1.57735      .   S
    P17    C82       1.86892      .   S
    P17    O138      1.52555  1_554   S
    P16    O140      1.52158      .   S
    P16    O133      1.57735      .   S
    P16    C81       1.86892      .   S
    P16    O137      1.52556  1_554   S
    P15    O141      1.52109  1_545   S
    P15    O132      1.57736      .   S
    P15    C80       1.86892      .   S
    P15    O136      1.52555  1_554   S
    O143   La10      2.36921      .   S
    O140   La7       2.36921      .   S
    O141   La8       2.36921      .   S
    O142   La9       2.36920      .   S
    La10   O247      2.58035      .   S
    La10   O211      2.50569  1_554   S
    La9    O246      2.58035      .   S
    La9    O210      2.50570  1_554   S
    La8    O245      2.57933      .   S
    La8    O209      2.50569  1_554   S
    La7    O244      2.57933      .   S
    La7    O208      2.50569  1_554   S
    O148   C86       1.27313      .   S
    O148   La32      2.50558  1_554   S
    O151   C85       1.26185      .   S
    O151   La2       2.50558  1_554   S
    O149   C87       1.27315      .   S
    O149   La0       2.50558  1_554   S
    O150   C84       1.26185      .   S
    O150   La1       2.50558  1_554   S
    H40    C82       1.10457  1_455   S
    H41    C83       1.10457  1_455   S
    H42    C80       1.10423      .   S
    H43    C81       1.10425      .   S
    C83    C87       1.51336  1_655   S
    C83    O147      1.42858      .   S
    C82    C86       1.51334  1_655   S
    C82    O146      1.42859      .   S
    C81    C85       1.51403      .   S
    C81    O145      1.42858      .   S
    C80    C84       1.51405      .   S
    C80    O144      1.42858      .   S
    C86    O154      1.27194  1_455   S
    C87    O155      1.27191  1_455   S
    C85    O153      1.28290      .   S
    C84    O152      1.28289      .   S
    H75    O239      1.02369      .   S
    H74    O238      1.02369      .   S
    H73    O237      1.02367      .   S
    H72    O236      1.02369      .   S
    O239   C123      1.42929      .   S
    O236   C120      1.42930      .   S
    O237   C121      1.42930      .   S
    O238   C122      1.42929      .   S
    O155   La6       2.57281      .   S
    O154   La5       2.57282      .   S
    O153   La4       2.57372      .   S
    O152   La3       2.57282      .   S
    O245   C125      1.28337      .   S
    O244   C124      1.28337      .   S
    O247   C127      1.27092  1_655   S
    O246   C126      1.27095  1_655   S
    O144   H36       1.02388  1_545   S
    O145   H37       1.02388      .   S
    O146   H38       1.02387  1_545   S
    O147   H39       1.02389      .   S
    C126   C122      1.51291  1_455   S
    C126   O240      1.27394      .   S
    C124   C120      1.51368      .   S
    C124   O242      1.26198      .   S
    C125   C121      1.51368      .   S
    C125   O243      1.26187      .   S
    C127   C123      1.51291  1_455   S
    C127   O241      1.27396      .   S
    C121   H79       1.10419      .   S
    C121   P28       1.87029      .   S
    C122   H76       1.10432  1_655   S
    C122   P29       1.87029      .   S
    C123   H77       1.10433  1_655   S
    C123   P30       1.87028      .   S
    C120   H78       1.10419      .   S
    C120   P27       1.87029      .   S
    O224   P27       1.57663      .   S
    O224   H68       1.01527      .   S
    O225   P28       1.57663      .   S
    O225   H69       1.01527      .   S
    O226   P29       1.57663      .   S
    O226   H70       1.01527      .   S
    O227   P30       1.57663      .   S
    O227   H71       1.01527      .   S
    O243   La14      2.50440      .   S
    O242   La13      2.50428      .   S
    O241   La12      2.50429      .   S
    O240   La11      2.50429      .   S
    La3    O232      2.36888      .   S
    La3    O189      2.56737  1_545   S
    La3    O170      2.40775      .   S
    La3    O252      2.57930      .   S
    La3    O180      2.50525      .   S
    La5    O234      2.36889      .   S
    La5    O191      2.56738  1_545   S
    La5    O168      2.40803  1_655   S
    La5    O254      2.57930      .   S
    La5    O182      2.50526      .   S
    La6    O235      2.36887      .   S
    La6    O190      2.56787      .   S
    La6    O169      2.40803  1_655   S
    La6    O255      2.57929      .   S
    La6    O183      2.50527      .   S
    La4    O233      2.36881      .   S
    La4    O188      2.56776      .   S
    La4    O171      2.40745      .   S
    La4    O253      2.57887      .   S
    La4    O181      2.50427      .   S
    O234   P29       1.52143      .   S
    O233   P28       1.52143      .   S
    O232   P27       1.52143      .   S
    O235   P30       1.52143      .   S
    P30    O231      1.52569      .   S
    P29    O230      1.52569      .   S
    P28    O229      1.52569      .   S
    P27    O228      1.52569      .   S
    O191   C107      1.25525      .   S
    O190   C106      1.25526      .   S
    O189   C105      1.25527      .   S
    O188   C104      1.25525      .   S
    O171   P22       1.52569      .   S
    O168   P19       1.52569      .   S
    O169   P20       1.52569      .   S
    O170   P21       1.52569      .   S
    C107   O195      1.28154      .   S
    C107   C130      1.55132  1_565   S
    C106   O194      1.28154      .   S
    C106   C131      1.55163      .   S
    C105   O193      1.28153      .   S
    C105   C128      1.55131  1_565   S
    C104   O192      1.28154      .   S
    C104   C129      1.55164      .   S
    O255   C131      1.28154      .   S
    O252   C128      1.28154      .   S
    O253   C129      1.28154      .   S
    O254   C130      1.28154      .   S
    O192   La11      2.57886      .   S
    O193   La12      2.57889      .   S
    O194   La13      2.57886      .   S
    O195   La14      2.57886      .   S
    C130   O250      1.25525      .   S
    C131   O251      1.25526      .   S
    C129   O249      1.25525      .   S
    C128   O248      1.25527      .   S
    O228   La13      2.40747      .   S
    O229   La14      2.40746      .   S
    O230   La11      2.40776  1_655   S
    O231   La12      2.40774  1_655   S
    H47    O167      1.01527      .   S
    H46    O166      1.01527      .   S
    H45    O165      1.01527      .   S
    H44    O164      1.01527      .   S
    O248   La12      2.56729  1_545   S
    O251   La13      2.56777      .   S
    O250   La14      2.56728  1_545   S
    O249   La11      2.56778      .   S
    P22    O175      1.52141      .   S
    P22    O167      1.57663      .   S
    P22    C95       1.87029      .   S
    P21    O174      1.52141      .   S
    P21    O166      1.57662      .   S
    P21    C94       1.87030      .   S
    P20    O173      1.52143      .   S
    P20    O165      1.57663      .   S
    P20    C93       1.87029      .   S
    P19    O172      1.52141      .   S
    P19    O164      1.57662      .   S
    P19    C92       1.87029      .   S
    O173   La12      2.36880      .   S
    O174   La13      2.36880      .   S
    O175   La14      2.36883      .   S
    O172   La11      2.36881      .   S
    La14   O215      2.57373      .   S
    La13   O214      2.57372      .   S
    La12   O213      2.57372      .   S
    La11   O212      2.57372      .   S
    O183   C97       1.26213      .   S
    O182   C96       1.26213      .   S
    O181   C99       1.26198      .   S
    O180   C98       1.26198      .   S
    H55    C93       1.10455  1_655   S
    H52    C94       1.10422      .   S
    H53    C95       1.10423      .   S
    H54    C92       1.10456  1_655   S
    C95    C99       1.51368      .   S
    C95    O179      1.42930      .   S
    C94    C98       1.51368      .   S
    C94    O178      1.42929      .   S
    C93    C97       1.51370  1_455   S
    C93    O177      1.42929      .   S
    C92    C96       1.51368  1_455   S
    C92    O176      1.42929      .   S
    C99    O187      1.28244      .   S
    C98    O186      1.28243      .   S
    C97    O185      1.28243  1_655   S
    C96    O184      1.28243  1_655   S
    H60    O204      1.02389      .   S
    H61    O205      0.87820  1_545   S
    H62    O206      1.02388      .   S
    H63    O207      0.87819  1_545   S
    O204   C108      1.42870      .   S
    O205   C109      1.42870      .   S
    O206   C110      1.42871      .   S
    O207   C111      1.42870      .   S
    O187   La2       2.58035      .   S
    O186   La1       2.58036      .   S
    O185   La0       2.58035      .   S
    O184   La32      2.58035      .   S
    O212   C112      1.28289  1_455   S
    O213   C113      1.28289  1_455   S
    O214   C114      1.28290      .   S
    O215   C115      1.28290      .   S
    O177   H49       1.02369      .   S
    O176   H48       1.02369      .   S
    O178   H50       1.02369      .   S
    O179   H51       1.02367      .   S
    C112   C108      1.51405  1_655   S
    C112   O210      1.26189      .   S
    C113   C109      1.51403  1_655   S
    C113   O211      1.26189      .   S
    C114   C110      1.51403      .   S
    C114   O208      1.26176      .   S
    C115   C111      1.51405      .   S
    C115   O209      1.26174      .   S
    C110   H64       1.10423      .   S
    C110   P25       1.86893      .   S
    C111   H65       1.10423      .   S
    C111   P26       1.86892      .   S
    C108   H66       1.10457  1_455   S
    C108   P23       1.86892      .   S
    C109   H67       1.10457  1_455   S
    C109   P24       1.86892      .   S
    O196   P23       1.57735      .   S
    O196   H56       1.01502      .   S
    O197   P24       1.57735      .   S
    O197   H57       1.01502      .   S
    O198   P25       1.57735      .   S
    O198   H58       1.01502      .   S
    O199   P26       1.57736      .   S
    O199   H59       1.01502      .   S
    La32   O101      2.36920      .   S
    La32   O156      2.56569      .   S
    La32   O138      2.40856  1_455   S
    La32   O220      2.58607      .   S
    La0    O102      2.36920      .   S
    La0    O157      2.56570      .   S
    La0    O139      2.40856  1_455   S
    La0    O221      2.58607      .   S
    La1    O103      2.36920      .   S
    La1    O158      2.56571      .   S
    La1    O136      2.40828      .   S
    La1    O222      2.58607      .   S
    La2    O203      2.36920      .   S
    La2    O159      2.56572      .   S
    La2    O137      2.40826      .   S
    La2    O223      2.58607      .   S
    O102   P23       1.52158      .   S
    O103   P26       1.52108  1_545   S
    O203   P25       1.52156      .   S
    O101   P24       1.52110  1_545   S
    O156   C88       1.25520      .   S
    O157   C89       1.25519      .   S
    O158   C90       1.25520      .   S
    O159   C91       1.25519      .   S
    O144   La3       2.53823      .   S
    O145   La4       2.53906      .   S
    O146   La5       2.53822      .   S
    O147   La6       2.53822      .   S
    O176   La32      2.54376      .   S
    O177   La0       2.54376      .   S
    O178   La1       2.54376      .   S
    O179   La2       2.54376      .   S
    O204   La11      2.53896      .   S
    O205   La12      2.53895      .   S
    O206   La13      2.53898      .   S
    O207   La14      2.53896      .   S
    O236   La7       2.54375      .   S
    O237   La8       2.54375      .   S
    O238   La9       2.54375      .   S
    O239   La10      2.54375      .   S
