# CIF file generated by openbabel 2.4.90, see http://openbabel.sf.net
data_I
_chemical_name_common ''
_cell_length_a 14.721
_cell_length_b 20.476
_cell_length_c 13.142
_cell_angle_alpha 89.99
_cell_angle_beta 89.928
_cell_angle_gamma 99.094
_space_group_name_H-M_alt 'P 1'
_space_group_name_Hall 'P 1'
loop_
    _symmetry_equiv_pos_as_xyz
    x,y,z
loop_
    _atom_site_label
    _atom_site_type_symbol
    _atom_site_fract_x
    _atom_site_fract_y
    _atom_site_fract_z
    _atom_site_occupancy
    La0     La   0.07668   0.63886   0.91782   1.000
    La1     La   0.57667   0.13885   0.91782   1.000
    La2     La   0.57667   0.63886   0.91782   1.000
    La3     La   0.42311   0.11119   0.41780   1.000
    La4     La   0.42311   0.61120   0.41788   1.000
    La5     La   0.92310   0.11119   0.41780   1.000
    La6     La   0.92310   0.61120   0.41780   1.000
    La7     La   0.42331   0.36116   0.08217   1.000
    La8     La   0.42331   0.86117   0.08217   1.000
    La9     La   0.92329   0.36116   0.08217   1.000
    La10    La   0.92330   0.86117   0.08217   1.000
    La11    La   0.07688   0.38882   0.58211   1.000
    La12    La   0.07688   0.88883   0.58211   1.000
    La13    La   0.57686   0.38882   0.58211   1.000
    La14    La   0.57687   0.88884   0.58211   1.000
    La15    La   0.07668   0.13885   0.91782   1.000
