# CIF file generated by openbabel 2.4.90, see http://openbabel.sf.net
data_I
_chemical_name_common ''
_cell_length_a 14.721
_cell_length_b 20.476
_cell_length_c 13.142
_cell_angle_alpha 89.99
_cell_angle_beta 89.928
_cell_angle_gamma 99.094
_space_group_name_H-M_alt 'P 1'
_space_group_name_Hall 'P 1'
loop_
    _symmetry_equiv_pos_as_xyz
    x,y,z
loop_
    _atom_site_label
    _atom_site_type_symbol
    _atom_site_fract_x
    _atom_site_fract_y
    _atom_site_fract_z
    _atom_site_occupancy
    N0      N    0.43743   0.07383   0.13489   1.000
    N1      N    0.56254   0.42618   0.86509   1.000
    N2      N    0.93722   0.82382   0.36595   1.000
    N3      N    0.24999   0.25000   0.99990   1.000
    N4      N    0.25000   0.75002   0.99990   1.000
    N5      N    0.93727   0.07383   0.13489   1.000
    N6      N    0.93721   0.32381   0.36595   1.000
    N7      N    0.56254   0.92560   0.86509   1.000
    N8      N    0.43744   0.57384   0.13489   1.000
    N9      N    0.56259   0.17620   0.63403   1.000
    N10     N    0.06255   0.92560   0.86509   1.000
    N11     N    0.06255   0.42618   0.86509   1.000
    N12     N    0.56259   0.67622   0.63403   1.000
    N13     N    0.93727   0.57384   0.13489   1.000
    N14     N    0.06260   0.17620   0.63403   1.000
    N15     N    0.06260   0.67622   0.63403   1.000
    N16     N    0.43739   0.32381   0.36595   1.000
    N17     N    0.43739   0.82382   0.36595   1.000
    N18     N    0.74998   0.25001   0.99990   1.000
    N19     N    0.74998   0.75002   0.99990   1.000
    N20     N    0.74998   0.00001   0.49999   1.000
    N21     N    0.74998   0.50001   0.49999   1.000
    N22     N    0.25000   0.00001   0.49999   1.000
    N23     N    0.24999   0.50001   0.49999   1.000
    Zr24    Zr   0.57686   0.38882   0.58211   1.000
    O25     O    0.57941   0.32261   0.59340   1.000
    Zr26    Zr   0.57687   0.88884   0.58211   1.000
    O27     O    0.57941   0.82262   0.59340   1.000
    Zr28    Zr   0.92310   0.11119   0.41780   1.000
    O29     O    0.92051   0.17740   0.40654   1.000
    Zr30    Zr   0.42331   0.36116   0.08217   1.000
    O31     O    0.42069   0.42739   0.09383   1.000
    Zr32    Zr   0.07668   0.13885   0.91782   1.000
    O33     O    0.07930   0.07248   0.90616   1.000
    Zr34    Zr   0.92329   0.36116   0.08217   1.000
    O35     O    0.92064   0.42739   0.09383   1.000
    Zr36    Zr   0.07688   0.38882   0.58211   1.000
    O37     O    0.07942   0.32261   0.59340   1.000
    Zr38    Zr   0.92330   0.86117   0.08217   1.000
    O39     O    0.92064   0.92739   0.09383   1.000
    Zr40    Zr   0.42311   0.61120   0.41788   1.000
    O41     O    0.42057   0.67741   0.40659   1.000
    Zr42    Zr   0.42331   0.86117   0.08217   1.000
    O43     O    0.42069   0.92739   0.09383   1.000
    Zr44    Zr   0.07668   0.63886   0.91782   1.000
    O45     O    0.07930   0.57264   0.90616   1.000
    Zr46    Zr   0.57667   0.63886   0.91782   1.000
    O47     O    0.57929   0.57264   0.90616   1.000
    Zr48    Zr   0.57667   0.13885   0.91782   1.000
    O49     O    0.57929   0.07248   0.90616   1.000
    Zr50    Zr   0.42311   0.11119   0.41780   1.000
    O51     O    0.42056   0.17740   0.40654   1.000
    Zr52    Zr   0.92310   0.61120   0.41780   1.000
    O53     O    0.92052   0.67741   0.40654   1.000
    Zr54    Zr   0.07688   0.88883   0.58211   1.000
    O55     O    0.07942   0.82262   0.59340   1.000
    O56     O    0.13475   0.42576   0.55544   1.000
    O57     O    0.36524   0.57426   0.44455   1.000
    O58     O    0.63474   0.42576   0.55544   1.000
    O59     O    0.53091   0.37052   0.51394   1.000
    O60     O    0.56828   0.39886   0.67300   1.000
    O61     O    0.56829   0.89873   0.67300   1.000
    O62     O    0.46921   0.87932   0.01369   1.000
    O63     O    0.86540   0.32424   0.05527   1.000
    O64     O    0.96920   0.37946   0.01369   1.000
    O65     O    0.93173   0.35112   0.17332   1.000
    O66     O    0.06820   0.14889   0.82667   1.000
    O67     O    0.96906   0.12949   0.48600   1.000
    O68     O    0.53092   0.87054   0.51394   1.000
    O69     O    0.63474   0.92577   0.55544   1.000
    O70     O    0.86540   0.82426   0.05527   1.000
    O71     O    0.63456   0.67578   0.94464   1.000
    O72     O    0.86523   0.57426   0.44450   1.000
    O73     O    0.56819   0.14889   0.82667   1.000
    O74     O    0.46906   0.12949   0.48600   1.000
    O75     O    0.13457   0.17577   0.94464   1.000
    O76     O    0.03074   0.12055   0.98630   1.000
    O77     O    0.06821   0.64890   0.82667   1.000
    O78     O    0.96906   0.62950   0.48600   1.000
    O79     O    0.03074   0.62056   0.98630   1.000
    O80     O    0.93164   0.60116   0.32694   1.000
    O81     O    0.13458   0.67578   0.94464   1.000
    O82     O    0.36542   0.82425   0.05527   1.000
    O83     O    0.96920   0.87932   0.01369   1.000
    O84     O    0.93173   0.85113   0.17332   1.000
    O85     O    0.86523   0.07425   0.44450   1.000
    O86     O    0.93164   0.10115   0.32694   1.000
    O87     O    0.63456   0.17577   0.94464   1.000
    O88     O    0.53077   0.62056   0.98630   1.000
    O89     O    0.43170   0.60116   0.32699   1.000
    O90     O    0.43178   0.35112   0.17332   1.000
    O91     O    0.36541   0.32424   0.05527   1.000
    O92     O    0.46920   0.37946   0.01369   1.000
    O93     O    0.43179   0.85113   0.17332   1.000
    O94     O    0.56819   0.64890   0.82667   1.000
    O95     O    0.46907   0.62950   0.48605   1.000
    O96     O    0.53077   0.12055   0.98630   1.000
    O97     O    0.13475   0.92577   0.55544   1.000
    O98     O    0.36524   0.07425   0.44450   1.000
    O99     O    0.06829   0.39886   0.67300   1.000
    O100    O    0.06830   0.89873   0.67300   1.000
    O101    O    0.03088   0.87054   0.51394   1.000
    O102    O    0.03088   0.37052   0.51394   1.000
    O103    O    0.43169   0.10115   0.32694   1.000
loop_
    _geom_bond_atom_site_label_1
    _geom_bond_atom_site_label_2
    _geom_bond_distance
    _geom_bond_site_symmetry_2
    _ccdc_geom_bond_type
    Zr24   O25       1.37019      .   S
    N9     O25       3.01627      .   S
    Zr26   O27       1.37020      .   S
    N12    O27       3.01628      .   S
    Zr28   O29       1.37027      .   S
    N6     O29       3.01631      .   S
    Zr30   O31       1.37126      .   S
    N8     O31       3.01863      .   S
    Zr32   O33       1.37418      .   S
    N10    O33       3.02727  1_565   S
    Zr34   O35       1.37136      .   S
    N13    O35       3.01875      .   S
    Zr36   O37       1.37019      .   S
    N14    O37       3.01627      .   S
    Zr38   O39       1.37125      .   S
    N5     O39       3.01842  1_545   S
    Zr40   O41       1.37020      .   S
    N17    O41       3.01629      .   S
    Zr42   O43       1.37115      .   S
    N0     O43       3.01830  1_545   S
    Zr44   O45       1.37126      .   S
    N11    O45       3.01862      .   S
    Zr46   O47       1.37126      .   S
    N1     O47       3.01862      .   S
    Zr48   O49       1.37418      .   S
    N7     O49       3.02727  1_565   S
    Zr50   O51       1.37015      .   S
    N16    O51       3.01617      .   S
    Zr52   O53       1.37026      .   S
    N2     O53       3.01630      .   S
    Zr54   O55       1.37019      .   S
    N15    O55       3.01627      .   S
    N23    O56       2.21397      .   S
    Zr36   O56       1.10284      .   S
    N23    O57       2.21397      .   S
    Zr40   O57       1.10284      .   S
    Zr24   O58       1.10284      .   S
    N21    O58       2.21397      .   S
    Zr24   O59       1.14987      .   S
    N16    O59       2.48679      .   S
    Zr24   O60       1.22181      .   S
    N1     O60       2.59004      .   S
    N7     O61       2.58802      .   S
    Zr26   O61       1.22124      .   S
    N7     O62       2.48605  1_556   S
    Zr42   O62       1.15044      .   S
    Zr34   O63       1.10449      .   S
    N18    O63       2.21678  1_556   S
    Zr34   O64       1.15120      .   S
    N11    O64       2.48887  1_456   S
    Zr34   O65       1.22520      .   S
    N6     O65       2.59659      .   S
    N14    O66       2.59676      .   S
    Zr32   O66       1.22529      .   S
    N14    O67       2.48734  1_455   S
    Zr28   O67       1.15020      .   S
    Zr26   O68       1.14987      .   S
    N17    O68       2.48679      .   S
    Zr26   O69       1.10277      .   S
    N20    O69       2.21385  1_545   S
    N19    O70       2.21678  1_556   S
    Zr38   O70       1.10450      .   S
    N19    O71       2.21633      .   S
    Zr46   O71       1.10417      .   S
    N21    O72       2.21419      .   S
    Zr52   O72       1.10297      .   S
    N9     O73       2.59676      .   S
    Zr48   O73       1.22529      .   S
    N9     O74       2.48723      .   S
    Zr50   O74       1.15015      .   S
    Zr32   O75       1.10416      .   S
    N3     O75       2.21632      .   S
    Zr32   O76       1.15149      .   S
    N5     O76       2.48968  1_654   S
    N15    O77       2.59676      .   S
    Zr44   O77       1.22529      .   S
    N15    O78       2.48734  1_455   S
    Zr52   O78       1.15020      .   S
    N13    O79       2.48970  1_654   S
    Zr44   O79       1.15150      .   S
    N13    O80       2.58932      .   S
    Zr52   O80       1.22137      .   S
    N4     O81       2.21632      .   S
    Zr44   O81       1.10416      .   S
    N4     O82       2.21678  1_556   S
    Zr42   O82       1.10450      .   S
    Zr38   O83       1.15049      .   S
    N10    O83       2.48615  1_456   S
    Zr38   O84       1.22520      .   S
    N2     O84       2.59659      .   S
    Zr28   O85       1.10290      .   S
    N20    O85       2.21407      .   S
    Zr28   O86       1.22136      .   S
    N5     O86       2.58931      .   S
    N18    O87       2.21632      .   S
    Zr48   O87       1.10416      .   S
    N8     O88       2.48873  1_554   S
    Zr46   O88       1.15113      .   S
    N8     O89       2.59007      .   S
    Zr40   O89       1.22182      .   S
    N16    O90       2.59675      .   S
    Zr30   O90       1.22519      .   S
    Zr30   O91       1.10450      .   S
    N3     O91       2.21678  1_556   S
    Zr30   O92       1.15115      .   S
    N1     O92       2.48876  1_556   S
    N17    O93       2.59674      .   S
    Zr42   O93       1.22519      .   S
    N12    O94       2.59676      .   S
    Zr46   O94       1.22529      .   S
    N12    O95       2.48672      .   S
    Zr40   O95       1.14984      .   S
    Zr48   O96       1.15113      .   S
    N0     O96       2.48872  1_554   S
    N22    O97       2.21386  1_545   S
    Zr54   O97       1.10277      .   S
    N22    O98       2.21407      .   S
    Zr50   O98       1.10289      .   S
    N11    O99       2.59004      .   S
    Zr36   O99       1.22181      .   S
    Zr54   O100      1.22124      .   S
    N10    O100      2.58803      .   S
    Zr54   O101      1.15024      .   S
    N2     O101      2.48776  1_655   S
    Zr36   O102      1.15024      .   S
    N6     O102      2.48776  1_655   S
    N0     O103      2.58942      .   S
    Zr50   O103      1.22144      .   S
