# CIF file generated by openbabel 2.4.90, see http://openbabel.sf.net
data_I
_chemical_name_common ''
_cell_length_a 14.721
_cell_length_b 20.476
_cell_length_c 13.142
_cell_angle_alpha 89.99
_cell_angle_beta 89.928
_cell_angle_gamma 99.094
_space_group_name_H-M_alt 'P 1'
_space_group_name_Hall 'P 1'
loop_
    _symmetry_equiv_pos_as_xyz
    x,y,z
loop_
    _atom_site_label
    _atom_site_type_symbol
    _atom_site_fract_x
    _atom_site_fract_y
    _atom_site_fract_z
    _atom_site_occupancy
    N0      N    0.43743   0.07383   0.13489   1.000
    N1      N    0.56254   0.42618   0.86509   1.000
    N2      N    0.93722   0.82382   0.36595   1.000
    N3      N    0.24999   0.25000   0.99990   1.000
    N4      N    0.25000   0.75002   0.99990   1.000
    N5      N    0.93727   0.07383   0.13489   1.000
    N6      N    0.93721   0.32381   0.36595   1.000
    N7      N    0.56254   0.92560   0.86509   1.000
    N8      N    0.43744   0.57384   0.13489   1.000
    N9      N    0.56259   0.17620   0.63403   1.000
    N10     N    0.06255   0.92560   0.86509   1.000
    N11     N    0.06255   0.42618   0.86509   1.000
    N12     N    0.56259   0.67622   0.63403   1.000
    N13     N    0.93727   0.57384   0.13489   1.000
    N14     N    0.06260   0.17620   0.63403   1.000
    N15     N    0.06260   0.67622   0.63403   1.000
    N16     N    0.43739   0.32381   0.36595   1.000
    N17     N    0.43739   0.82382   0.36595   1.000
    N18     N    0.74998   0.25001   0.99990   1.000
    N19     N    0.74998   0.75002   0.99990   1.000
    N20     N    0.74998   0.00001   0.49999   1.000
    N21     N    0.74998   0.50001   0.49999   1.000
    N22     N    0.25000   0.00001   0.49999   1.000
    N23     N    0.24999   0.50001   0.49999   1.000
    Zr24    Zr   0.57686   0.38882   0.58211   1.000
    O25     O    0.57941   0.32261   0.59340   1.000
    O26     O    0.52411   0.36427   0.52197   1.000
    O27     O    0.62910   0.43189   0.55933   1.000
    O28     O    0.53772   0.37678   0.50591   1.000
    O29     O    0.64037   0.41964   0.55156   1.000
    O30     O    0.56706   0.39090   0.67402   1.000
    O31     O    0.56951   0.40682   0.67197   1.000
    Zr32    Zr   0.57687   0.88884   0.58211   1.000
    O33     O    0.52411   0.86428   0.52197   1.000
    O34     O    0.62910   0.93190   0.55933   1.000
    O35     O    0.64038   0.91965   0.55156   1.000
    O36     O    0.56706   0.89077   0.67402   1.000
    O37     O    0.53772   0.87679   0.50591   1.000
    O38     O    0.57941   0.82262   0.59340   1.000
    O39     O    0.56951   0.90669   0.67197   1.000
    Zr40    Zr   0.92310   0.11119   0.41780   1.000
    O41     O    0.97586   0.13574   0.47797   1.000
    O42     O    0.87086   0.06812   0.44061   1.000
    O43     O    0.85959   0.08038   0.44838   1.000
    O44     O    0.96225   0.12323   0.49403   1.000
    O45     O    0.93287   0.10911   0.32591   1.000
    O46     O    0.93041   0.09319   0.32797   1.000
    O47     O    0.92051   0.17740   0.40654   1.000
    Zr48    Zr   0.42331   0.36116   0.08217   1.000
    O49     O    0.37105   0.31812   0.05921   1.000
    O50     O    0.43303   0.35908   0.17433   1.000
    O51     O    0.43054   0.34316   0.17230   1.000
    O52     O    0.42069   0.42739   0.09383   1.000
    O53     O    0.47598   0.38572   0.02165   1.000
    O54     O    0.35978   0.33037   0.05133   1.000
    O55     O    0.46243   0.37320   0.00573   1.000
    Zr56    Zr   0.07668   0.13885   0.91782   1.000
    O57     O    0.14021   0.16964   0.94855   1.000
    O58     O    0.06696   0.14093   0.82565   1.000
    O59     O    0.06945   0.15685   0.82769   1.000
    O60     O    0.12894   0.18189   0.94073   1.000
    O61     O    0.07930   0.07248   0.90616   1.000
    O62     O    0.03751   0.12681   0.99426   1.000
    O63     O    0.02396   0.11429   0.97833   1.000
    Zr64    Zr   0.92329   0.36116   0.08217   1.000
    O65     O    0.93298   0.35908   0.17434   1.000
    O66     O    0.97597   0.38573   0.02165   1.000
    O67     O    0.92064   0.42739   0.09383   1.000
    O68     O    0.85977   0.33037   0.05133   1.000
    O69     O    0.96242   0.37320   0.00573   1.000
    O70     O    0.87103   0.31812   0.05921   1.000
    O71     O    0.93048   0.34316   0.17230   1.000
    Zr72    Zr   0.07688   0.38882   0.58211   1.000
    O73     O    0.06707   0.39090   0.67402   1.000
    O74     O    0.03768   0.37678   0.50591   1.000
    O75     O    0.07942   0.32261   0.59340   1.000
    O76     O    0.14038   0.41964   0.55156   1.000
    O77     O    0.12911   0.43189   0.55933   1.000
    O78     O    0.06952   0.40682   0.67197   1.000
    O79     O    0.02407   0.36427   0.52197   1.000
    Zr80    Zr   0.92330   0.86117   0.08217   1.000
    O81     O    0.97598   0.88559   0.02165   1.000
    O82     O    0.85977   0.83038   0.05133   1.000
    O83     O    0.87104   0.81813   0.05921   1.000
    O84     O    0.92064   0.92739   0.09383   1.000
    O85     O    0.96243   0.87306   0.00573   1.000
    O86     O    0.93049   0.84317   0.17230   1.000
    O87     O    0.93298   0.85909   0.17434   1.000
    Zr88    Zr   0.42311   0.61120   0.41788   1.000
    O89     O    0.43292   0.60912   0.32596   1.000
    O90     O    0.35961   0.58039   0.44843   1.000
    O91     O    0.46226   0.62324   0.49408   1.000
    O92     O    0.42057   0.67741   0.40659   1.000
    O93     O    0.43047   0.59320   0.32802   1.000
    O94     O    0.47587   0.63575   0.47802   1.000
    O95     O    0.37088   0.56813   0.44066   1.000
    Zr96    Zr   0.42331   0.86117   0.08217   1.000
    O97     O    0.47598   0.88559   0.02165   1.000
    O98     O    0.43303   0.85909   0.17433   1.000
    O99     O    0.46244   0.87306   0.00573   1.000
    O100    O    0.43054   0.84317   0.17230   1.000
    O101    O    0.42069   0.92739   0.09383   1.000
    O102    O    0.35978   0.83038   0.05133   1.000
    O103    O    0.37105   0.81813   0.05921   1.000
    Zr104   Zr   0.07668   0.63886   0.91782   1.000
    O105    O    0.07930   0.57264   0.90616   1.000
    O106    O    0.03751   0.62683   0.99426   1.000
    O107    O    0.06945   0.65686   0.82769   1.000
    O108    O    0.06696   0.64094   0.82565   1.000
    O109    O    0.02397   0.61430   0.97833   1.000
    O110    O    0.12895   0.68190   0.94073   1.000
    O111    O    0.14021   0.66966   0.94855   1.000
    Zr112   Zr   0.57667   0.63886   0.91782   1.000
    O113    O    0.53755   0.62683   0.99426   1.000
    O114    O    0.56944   0.65686   0.82769   1.000
    O115    O    0.62893   0.68190   0.94073   1.000
    O116    O    0.56695   0.64094   0.82565   1.000
    O117    O    0.64020   0.66966   0.94855   1.000
    O118    O    0.52400   0.61430   0.97833   1.000
    O119    O    0.57929   0.57264   0.90616   1.000
    Zr120   Zr   0.57667   0.13885   0.91782   1.000
    O121    O    0.56944   0.15685   0.82769   1.000
    O122    O    0.62893   0.18189   0.94073   1.000
    O123    O    0.64019   0.16964   0.94855   1.000
    O124    O    0.56694   0.14093   0.82565   1.000
    O125    O    0.57929   0.07248   0.90616   1.000
    O126    O    0.52400   0.11429   0.97833   1.000
    O127    O    0.53754   0.12681   0.99426   1.000
    Zr128   Zr   0.42311   0.11119   0.41780   1.000
    O129    O    0.46226   0.12323   0.49403   1.000
    O130    O    0.42056   0.17740   0.40654   1.000
    O131    O    0.35960   0.08038   0.44838   1.000
    O132    O    0.47587   0.13574   0.47797   1.000
    O133    O    0.37087   0.06812   0.44061   1.000
    O134    O    0.43292   0.10911   0.32591   1.000
    O135    O    0.43047   0.09319   0.32797   1.000
    Zr136   Zr   0.92310   0.61120   0.41780   1.000
    O137    O    0.85959   0.58039   0.44838   1.000
    O138    O    0.87086   0.56813   0.44061   1.000
    O139    O    0.93287   0.60912   0.32591   1.000
    O140    O    0.93042   0.59320   0.32797   1.000
    O141    O    0.97587   0.63575   0.47797   1.000
    O142    O    0.96225   0.62324   0.49403   1.000
    O143    O    0.92052   0.67741   0.40654   1.000
    Zr144   Zr   0.07688   0.88883   0.58211   1.000
    O145    O    0.02408   0.86428   0.52197   1.000
    O146    O    0.07942   0.82262   0.59340   1.000
    O147    O    0.06952   0.90669   0.67197   1.000
    O148    O    0.06707   0.89077   0.67402   1.000
    O149    O    0.14039   0.91965   0.55156   1.000
    O150    O    0.12912   0.93190   0.55933   1.000
    O151    O    0.03769   0.87679   0.50591   1.000
loop_
    _geom_bond_atom_site_label_1
    _geom_bond_atom_site_label_2
    _geom_bond_distance
    _geom_bond_site_symmetry_2
    _ccdc_geom_bond_type
    Zr24   O25       1.37019      .   S
    N9     O25       3.01627      .   S
    Zr24   O26       1.16573      .   S
    N16    O26       2.48858      .   S
    Zr24   O27       1.11522      .   S
    N21    O27       2.22071      .   S
    Zr24   O28       1.16295      .   S
    N16    O28       2.49843      .   S
    Zr24   O29       1.11616      .   S
    N21    O29       2.22009      .   S
    Zr24   O30       1.21792      .   S
    N1     O30       2.61666      .   S
    Zr24   O31       1.24683      .   S
    N1     O31       2.57332      .   S
    Zr32   O33       1.16573      .   S
    N17    O33       2.48859      .   S
    Zr32   O34       1.11511      .   S
    N20    O34       2.22062  1_545   S
    Zr32   O35       1.11612      .   S
    N20    O35       2.21994  1_545   S
    Zr32   O36       1.21775      .   S
    N7     O36       2.61410      .   S
    Zr32   O37       1.16296      .   S
    N17    O37       2.49843      .   S
    Zr32   O38       1.37020      .   S
    N12    O38       3.01628      .   S
    Zr32   O39       1.24588      .   S
    N7     O39       2.57186      .   S
    Zr40   O41       1.16605      .   S
    N14    O41       2.48914  1_455   S
    Zr40   O42       1.11522      .   S
    N20    O42       2.22086      .   S
    Zr40   O43       1.11627      .   S
    N20    O43       2.22014      .   S
    Zr40   O44       1.16330      .   S
    N14    O44       2.49898  1_455   S
    Zr40   O45       1.21747      .   S
    N5     O45       2.61594      .   S
    Zr40   O46       1.24640      .   S
    N5     O46       2.57259      .   S
    Zr40   O47       1.37027      .   S
    N6     O47       3.01631      .   S
    Zr48   O49       1.11624      .   S
    N3     O49       2.22405  1_556   S
    Zr48   O50       1.22132      .   S
    N16    O50       2.62331      .   S
    Zr48   O51       1.25013      .   S
    N16    O51       2.58007      .   S
    Zr48   O52       1.37126      .   S
    N8     O52       3.01863      .   S
    Zr48   O53       1.16691      .   S
    N1     O53       2.49051  1_556   S
    Zr48   O54       1.11847      .   S
    N3     O54       2.22238  1_556   S
    Zr48   O55       1.16415      .   S
    N1     O55       2.50038  1_556   S
    Zr56   O57       1.11794      .   S
    N3     O57       2.22208      .   S
    Zr56   O58       1.22150      .   S
    N14    O58       2.62325      .   S
    Zr56   O59       1.25016      .   S
    N14    O59       2.58015      .   S
    Zr56   O60       1.11607      .   S
    N3     O60       2.22341      .   S
    Zr56   O61       1.37418      .   S
    N10    O61       3.02727  1_565   S
    Zr56   O62       1.16443      .   S
    N5     O62       2.50137  1_654   S
    Zr56   O63       1.16732      .   S
    N5     O63       2.49135  1_654   S
    Zr64   O65       1.22140      .   S
    N6     O65       2.62308      .   S
    Zr64   O66       1.16699      .   S
    N11    O66       2.49060  1_456   S
    Zr64   O67       1.37136      .   S
    N13    O67       3.01875      .   S
    Zr64   O68       1.11847      .   S
    N18    O68       2.22237  1_556   S
    Zr64   O69       1.16419      .   S
    N11    O69       2.50050  1_456   S
    Zr64   O70       1.11624      .   S
    N18    O70       2.22405  1_556   S
    Zr64   O71       1.25006      .   S
    N6     O71       2.57999      .   S
    Zr72   O73       1.21792      .   S
    N11    O73       2.61666      .   S
    Zr72   O74       1.16325      .   S
    N6     O74       2.49948  1_655   S
    Zr72   O75       1.37019      .   S
    N14    O75       3.01627      .   S
    Zr72   O76       1.11617      .   S
    N23    O76       2.22009      .   S
    Zr72   O77       1.11522      .   S
    N23    O77       2.22072      .   S
    Zr72   O78       1.24683      .   S
    N11    O78       2.57333      .   S
    Zr72   O79       1.16615      .   S
    N6     O79       2.48948  1_655   S
    Zr80   O81       1.16599      .   S
    N10    O81       2.48830  1_456   S
    Zr80   O82       1.11847      .   S
    N19    O82       2.22238  1_556   S
    Zr80   O83       1.11624      .   S
    N19    O83       2.22405  1_556   S
    Zr80   O84       1.37125      .   S
    N5     O84       3.01842  1_545   S
    Zr80   O85       1.16378      .   S
    N10    O85       2.49738  1_456   S
    Zr80   O86       1.25006      .   S
    N2     O86       2.57998      .   S
    Zr80   O87       1.22140      .   S
    N2     O87       2.62308      .   S
    Zr88   O89       1.21793      .   S
    N8     O89       2.61670      .   S
    Zr88   O90       1.11617      .   S
    N23    O90       2.22009      .   S
    Zr88   O91       1.16292      .   S
    N12    O91       2.49837      .   S
    Zr88   O92       1.37020      .   S
    N17    O92       3.01629      .   S
    Zr88   O93       1.24686      .   S
    N8     O93       2.57335      .   S
    Zr88   O94       1.16570      .   S
    N12    O94       2.48851      .   S
    Zr88   O95       1.11522      .   S
    N23    O95       2.22072      .   S
    Zr96   O97       1.16592      .   S
    N7     O97       2.48821  1_556   S
    Zr96   O98       1.22132      .   S
    N17    O98       2.62330      .   S
    Zr96   O99       1.16375      .   S
    N7     O99       2.49726  1_556   S
    Zr96   O100      1.25013      .   S
    N17    O100      2.58006      .   S
    Zr96   O101      1.37115      .   S
    N0     O101      3.01830  1_545   S
    Zr96   O102      1.11847      .   S
    N4     O102      2.22238  1_556   S
    Zr96   O103      1.11624      .   S
    N4     O103      2.22405  1_556   S
    Zr104  O105      1.37126      .   S
    N11    O105      3.01862      .   S
    Zr104  O106      1.16443      .   S
    N13    O106      2.50139  1_654   S
    Zr104  O107      1.25016      .   S
    N15    O107      2.58015      .   S
    Zr104  O108      1.22150      .   S
    N15    O108      2.62325      .   S
    Zr104  O109      1.16733      .   S
    N13    O109      2.49136  1_654   S
    Zr104  O110      1.11608      .   S
    N4     O110      2.22341      .   S
    Zr104  O111      1.11794      .   S
    N4     O111      2.22208      .   S
    Zr112  O113      1.16413      .   S
    N8     O113      2.50035  1_554   S
    Zr112  O114      1.25016      .   S
    N12    O114      2.58015      .   S
    Zr112  O115      1.11608      .   S
    N19    O115      2.22342      .   S
    Zr112  O116      1.22149      .   S
    N12    O116      2.62325      .   S
    Zr112  O117      1.11794      .   S
    N19    O117      2.22209      .   S
    Zr112  O118      1.16690      .   S
    N8     O118      2.49047  1_554   S
    Zr112  O119      1.37126      .   S
    N1     O119      3.01862      .   S
    Zr120  O121      1.25016      .   S
    N9     O121      2.58015      .   S
    Zr120  O122      1.11608      .   S
    N18    O122      2.22341      .   S
    Zr120  O123      1.11794      .   S
    N18    O123      2.22208      .   S
    Zr120  O124      1.22149      .   S
    N9     O124      2.62325      .   S
    Zr120  O125      1.37418      .   S
    N7     O125      3.02727  1_565   S
    Zr120  O126      1.16690      .   S
    N0     O126      2.49046  1_554   S
    Zr120  O127      1.16412      .   S
    N0     O127      2.50034  1_554   S
    Zr128  O129      1.16326      .   S
    N9     O129      2.49885      .   S
    Zr128  O130      1.37015      .   S
    N16    O130      3.01617      .   S
    Zr128  O131      1.11627      .   S
    N22    O131      2.22014      .   S
    Zr128  O132      1.16597      .   S
    N9     O132      2.48905      .   S
    Zr128  O133      1.11522      .   S
    N22    O133      2.22086      .   S
    Zr128  O134      1.21754      .   S
    N0     O134      2.61606      .   S
    Zr128  O135      1.24648      .   S
    N0     O135      2.57269      .   S
    Zr136  O137      1.11631      .   S
    N21    O137      2.22029      .   S
    Zr136  O138      1.11533      .   S
    N21    O138      2.22095      .   S
    Zr136  O139      1.21747      .   S
    N13    O139      2.61595      .   S
    Zr136  O140      1.24641      .   S
    N13    O140      2.57259      .   S
    Zr136  O141      1.16605      .   S
    N15    O141      2.48914  1_455   S
    Zr136  O142      1.16330      .   S
    N15    O142      2.49897  1_455   S
    Zr136  O143      1.37026      .   S
    N2     O143      3.01630      .   S
    Zr144  O145      1.16615      .   S
    N2     O145      2.48948  1_655   S
    Zr144  O146      1.37019      .   S
    N15    O146      3.01627      .   S
    Zr144  O147      1.24589      .   S
    N10    O147      2.57187      .   S
    Zr144  O148      1.21776      .   S
    N10    O148      2.61410      .   S
    Zr144  O149      1.11613      .   S
    N22    O149      2.21995  1_545   S
    Zr144  O150      1.11512      .   S
    N22    O150      2.22064  1_545   S
    Zr144  O151      1.16325      .   S
    N2     O151      2.49948  1_655   S
