# CIF file generated by openbabel 2.4.90, see http://openbabel.sf.net
data_I
_chemical_name_common ''
_cell_length_a 14.721
_cell_length_b 20.476
_cell_length_c 13.142
_cell_angle_alpha 89.99
_cell_angle_beta 89.928
_cell_angle_gamma 99.094
_space_group_name_H-M_alt 'P 1'
_space_group_name_Hall 'P 1'
loop_
    _symmetry_equiv_pos_as_xyz
    x,y,z
loop_
    _atom_site_label
    _atom_site_type_symbol
    _atom_site_fract_x
    _atom_site_fract_y
    _atom_site_fract_z
    _atom_site_occupancy
    Zr0     Zr   0.07668   0.13885   0.91782   1.000
    Zr1     Zr   0.07668   0.63886   0.91782   1.000
    Zr2     Zr   0.57667   0.13885   0.91782   1.000
    Zr3     Zr   0.57667   0.63886   0.91782   1.000
    Zr4     Zr   0.42311   0.11119   0.41780   1.000
    Zr5     Zr   0.42311   0.61120   0.41788   1.000
    Zr6     Zr   0.92310   0.11119   0.41780   1.000
    Zr7     Zr   0.92310   0.61120   0.41780   1.000
    Zr8     Zr   0.42331   0.36116   0.08217   1.000
    Zr9     Zr   0.42331   0.86117   0.08217   1.000
    Zr10    Zr   0.92329   0.36116   0.08217   1.000
    Zr11    Zr   0.92330   0.86117   0.08217   1.000
    Zr12    Zr   0.07688   0.38882   0.58211   1.000
    Zr13    Zr   0.07688   0.88883   0.58211   1.000
    Zr14    Zr   0.57686   0.38882   0.58211   1.000
    Zr15    Zr   0.57687   0.88884   0.58211   1.000
    N16     N    0.43743   0.07383   0.13489   1.000
    O17     O    0.49842   0.11478   0.07070   1.000
    O18     O    0.43782   0.07519   0.23814   1.000
    O19     O    0.44272   0.10703   0.23403   1.000
    O20     O    0.41808   0.99361   0.10549   1.000
    O21     O    0.47133   0.08972   0.03885   1.000
    N22     N    0.56254   0.42618   0.86509   1.000
    O23     O    0.52865   0.41029   0.96114   1.000
    O24     O    0.58190   0.50641   0.89450   1.000
    O25     O    0.56215   0.42483   0.76182   1.000
    O26     O    0.50156   0.38523   0.92929   1.000
    O27     O    0.55725   0.39299   0.76594   1.000
    N28     N    0.93722   0.82382   0.36595   1.000
    O29     O    0.97127   0.83973   0.46182   1.000
    O30     O    0.94267   0.85701   0.26652   1.000
    O31     O    0.91793   0.74362   0.39529   1.000
    O32     O    0.93768   0.82517   0.26244   1.000
    O33     O    0.99849   0.86475   0.42971   1.000
    N34     N    0.24999   0.25000   0.99990   1.000
    O35     O    0.31878   0.27508   0.03625   1.000
    O36     O    0.18120   0.22493   0.96365   1.000
    O37     O    0.29626   0.29957   0.02049   1.000
    O38     O    0.20373   0.20044   0.97927   1.000
    N39     N    0.25000   0.75002   0.99990   1.000
    O40     O    0.31879   0.77509   0.03625   1.000
    O41     O    0.18121   0.72495   0.96365   1.000
    O42     O    0.29626   0.79959   0.02049   1.000
    O43     O    0.20374   0.70045   0.97927   1.000
    N44     N    0.93727   0.07383   0.13489   1.000
    O45     O    0.99834   0.11478   0.07070   1.000
    O46     O    0.91799   0.99361   0.10549   1.000
    O47     O    0.93773   0.07519   0.23814   1.000
    O48     O    0.94264   0.10703   0.23403   1.000
    O49     O    0.97124   0.08972   0.03885   1.000
    N50     N    0.93721   0.32381   0.36595   1.000
    O51     O    0.97126   0.33972   0.46182   1.000
    O52     O    0.94266   0.35700   0.26652   1.000
    O53     O    0.91793   0.24361   0.39529   1.000
    O54     O    0.93767   0.32516   0.26244   1.000
    O55     O    0.99849   0.36474   0.42971   1.000
    N56     N    0.56254   0.92560   0.86509   1.000
    O57     O    0.52865   0.91000   0.96114   1.000
    O58     O    0.55725   0.89270   0.76594   1.000
    O59     O    0.58190   0.00611   0.89450   1.000
    O60     O    0.56216   0.92454   0.76182   1.000
    O61     O    0.50156   0.88495   0.92929   1.000
    N62     N    0.43744   0.57384   0.13489   1.000
    O63     O    0.43783   0.57520   0.23816   1.000
    O64     O    0.49842   0.61479   0.07070   1.000
    O65     O    0.44273   0.60704   0.23405   1.000
    O66     O    0.41808   0.49361   0.10549   1.000
    O67     O    0.47133   0.58973   0.03885   1.000
    N68     N    0.56259   0.17620   0.63403   1.000
    O69     O    0.56220   0.17485   0.73755   1.000
    O70     O    0.52862   0.16030   0.53814   1.000
    O71     O    0.58195   0.25640   0.60468   1.000
    O72     O    0.50140   0.13527   0.57026   1.000
    O73     O    0.55722   0.14301   0.73347   1.000
    N74     N    0.06255   0.92560   0.86509   1.000
    O75     O    0.02865   0.91000   0.96114   1.000
    O76     O    0.08191   0.00611   0.89450   1.000
    O77     O    0.06217   0.92454   0.76182   1.000
    O78     O    0.00156   0.88495   0.92929   1.000
    O79     O    0.05726   0.89270   0.76594   1.000
    N80     N    0.06255   0.42618   0.86509   1.000
    O81     O    0.08191   0.50641   0.89450   1.000
    O82     O    0.02865   0.41029   0.96114   1.000
    O83     O    0.06216   0.42483   0.76182   1.000
    O84     O    0.00156   0.38523   0.92929   1.000
    O85     O    0.05726   0.39299   0.76594   1.000
    N86     N    0.56259   0.67622   0.63403   1.000
    O87     O    0.56221   0.67486   0.73755   1.000
    O88     O    0.52863   0.66031   0.53816   1.000
    O89     O    0.58196   0.75641   0.60468   1.000
    O90     O    0.50141   0.63528   0.57028   1.000
    O91     O    0.55722   0.64303   0.73347   1.000
    N92     N    0.93727   0.57384   0.13489   1.000
    O93     O    0.99834   0.61479   0.07070   1.000
    O94     O    0.94264   0.60704   0.23403   1.000
    O95     O    0.91798   0.49361   0.10549   1.000
    O96     O    0.93774   0.57520   0.23814   1.000
    O97     O    0.97125   0.58973   0.03885   1.000
    N98     N    0.06260   0.17620   0.63403   1.000
    O99     O    0.06222   0.17485   0.73755   1.000
    O100    O    0.08196   0.25640   0.60468   1.000
    O101    O    0.00140   0.13527   0.57026   1.000
    O102    O    0.05723   0.14301   0.73347   1.000
    O103    O    0.02863   0.16030   0.53814   1.000
    N104    N    0.06260   0.67622   0.63403   1.000
    O105    O    0.06222   0.67486   0.73755   1.000
    O106    O    0.02863   0.66031   0.53814   1.000
    O107    O    0.08197   0.75641   0.60468   1.000
    O108    O    0.00141   0.63528   0.57026   1.000
    O109    O    0.05723   0.64303   0.73347   1.000
    N110    N    0.43739   0.32381   0.36595   1.000
    O111    O    0.47135   0.33972   0.46182   1.000
    O112    O    0.41802   0.24361   0.39528   1.000
    O113    O    0.44276   0.35700   0.26649   1.000
    O114    O    0.43777   0.32516   0.26243   1.000
    O115    O    0.49857   0.36474   0.42970   1.000
    N116    N    0.43739   0.82382   0.36595   1.000
    O117    O    0.47136   0.83973   0.46182   1.000
    O118    O    0.44276   0.85701   0.26649   1.000
    O119    O    0.41802   0.74362   0.39530   1.000
    O120    O    0.43777   0.82517   0.26243   1.000
    O121    O    0.49857   0.86475   0.42970   1.000
    N122    N    0.74998   0.25001   0.99990   1.000
    O123    O    0.81877   0.27508   0.03625   1.000
    O124    O    0.79624   0.29957   0.02049   1.000
    O125    O    0.68119   0.22493   0.96365   1.000
    O126    O    0.70372   0.20044   0.97927   1.000
    N127    N    0.74998   0.75002   0.99990   1.000
    O128    O    0.79625   0.79959   0.02049   1.000
    O129    O    0.68119   0.72495   0.96365   1.000
    O130    O    0.81878   0.77509   0.03625   1.000
    O131    O    0.70372   0.70045   0.97927   1.000
    N132    N    0.74998   0.00001   0.49999   1.000
    O133    O    0.68134   0.97496   0.53654   1.000
    O134    O    0.79608   0.04957   0.47896   1.000
    O135    O    0.81863   0.02506   0.46342   1.000
    O136    O    0.70388   0.95046   0.52101   1.000
    N137    N    0.74998   0.50001   0.49999   1.000
    O138    O    0.68134   0.47496   0.53654   1.000
    O139    O    0.79609   0.54957   0.47896   1.000
    O140    O    0.81863   0.52506   0.46342   1.000
    O141    O    0.70388   0.45045   0.52101   1.000
    N142    N    0.25000   0.00001   0.49999   1.000
    O143    O    0.29610   0.04957   0.47896   1.000
    O144    O    0.18135   0.97496   0.53654   1.000
    O145    O    0.31864   0.02506   0.46342   1.000
    O146    O    0.20390   0.95046   0.52101   1.000
    N147    N    0.24999   0.50001   0.49999   1.000
    O148    O    0.29610   0.54957   0.47898   1.000
    O149    O    0.18135   0.47496   0.53654   1.000
    O150    O    0.31864   0.52506   0.46344   1.000
    O151    O    0.20389   0.45045   0.52101   1.000
loop_
    _geom_bond_atom_site_label_1
    _geom_bond_atom_site_label_2
    _geom_bond_distance
    _geom_bond_site_symmetry_2
    _ccdc_geom_bond_type
    N16    O17       1.40734      .   S
    Zr2    O17       2.32825  1_556   S
    N16    O18       1.35719      .   S
    Zr4    O18       2.49296      .   S
    N16    O19       1.46606      .   S
    Zr4    O19       2.43507      .   S
    N16    O20       1.66765  1_545   S
    Zr9    O20       2.74231      .   S
    N16    O21       1.37657      .   S
    Zr2    O21       2.33380  1_556   S
    N22    O23       1.37660      .   S
    Zr8    O23       2.33382  1_554   S
    N22    O24       1.66786      .   S
    Zr3    O24       2.74252      .   S
    N22    O25       1.35746      .   S
    Zr14   O25       2.49366      .   S
    N22    O26       1.40735      .   S
    Zr8    O26       2.32830  1_554   S
    N22    O27       1.46628      .   S
    Zr14   O27       2.43583      .   S
    N28    O29       1.37657      .   S
    Zr13   O29       2.33231  1_455   S
    N28    O30       1.46909      .   S
    Zr11   O30       2.44281      .   S
    N28    O31       1.66667      .   S
    Zr7    O31       2.74052      .   S
    N28    O32       1.36068      .   S
    Zr11   O32       2.50013      .   S
    N28    O33       1.40757      .   S
    Zr13   O33       2.32651  1_455   S
    N34    O35       1.16369  1_556   S
    Zr8    O35       2.23249      .   S
    N34    O36       1.16319      .   S
    Zr0    O36       2.23215      .   S
    N34    O37       1.16157  1_556   S
    Zr8    O37       2.23694      .   S
    N34    O38       1.16168      .   S
    Zr0    O38       2.23587      .   S
    N39    O40       1.16369  1_556   S
    Zr9    O40       2.23248      .   S
    N39    O41       1.16319      .   S
    Zr1    O41       2.23215      .   S
    N39    O42       1.16157  1_556   S
    Zr9    O42       2.23694      .   S
    N39    O43       1.16168      .   S
    Zr1    O43       2.23587      .   S
    N44    O45       1.40806      .   S
    Zr0    O45       2.32886  1_456   S
    N44    O46       1.66763  1_545   S
    Zr11   O46       2.74251      .   S
    N44    O47       1.35719      .   S
    Zr6    O47       2.49281      .   S
    N44    O48       1.46604      .   S
    Zr6    O48       2.43493      .   S
    N44    O49       1.37697      .   S
    Zr0    O49       2.33464  1_456   S
    N50    O51       1.37657      .   S
    Zr12   O51       2.33231  1_455   S
    N50    O52       1.46909      .   S
    Zr10   O52       2.44281      .   S
    N50    O53       1.66667      .   S
    Zr6    O53       2.74053      .   S
    N50    O54       1.36068      .   S
    Zr10   O54       2.50013      .   S
    N50    O55       1.40757      .   S
    Zr12   O55       2.32651  1_455   S
    N56    O57       1.37552      .   S
    Zr9    O57       2.33184  1_554   S
    N56    O58       1.46350      .   S
    Zr15   O58       2.43551      .   S
    N56    O59       1.67349  1_565   S
    Zr2    O59       2.74837      .   S
    N56    O60       1.35735      .   S
    Zr15   O60       2.49177      .   S
    N56    O61       1.40432      .   S
    Zr9    O61       2.32749  1_554   S
    N62    O63       1.35745      .   S
    Zr5    O63       2.49371      .   S
    N62    O64       1.40735      .   S
    Zr3    O64       2.32825  1_556   S
    N62    O65       1.46630      .   S
    Zr5    O65       2.43586      .   S
    N62    O66       1.66787      .   S
    Zr8    O66       2.74252      .   S
    N62    O67       1.37657      .   S
    Zr3    O67       2.33380  1_556   S
    N68    O69       1.36071      .   S
    Zr2    O69       2.50032      .   S
    N68    O70       1.37636      .   S
    Zr4    O70       2.33195      .   S
    N68    O71       1.66673      .   S
    Zr14   O71       2.74038      .   S
    N68    O72       1.40695      .   S
    Zr4    O72       2.32652      .   S
    N68    O73       1.46914      .   S
    Zr2    O73       2.44299      .   S
    N74    O75       1.37554      .   S
    Zr11   O75       2.33198  1_654   S
    N74    O76       1.67349  1_565   S
    Zr0    O76       2.74837      .   S
    N74    O77       1.35735      .   S
    Zr13   O77       2.49177      .   S
    N74    O78       1.40441      .   S
    Zr11   O78       2.32757  1_654   S
    N74    O79       1.46350      .   S
    Zr13   O79       2.43551      .   S
    N80    O81       1.66786      .   S
    Zr1    O81       2.74252      .   S
    N80    O82       1.37662      .   S
    Zr10   O82       2.33398  1_654   S
    N80    O83       1.35746      .   S
    Zr12   O83       2.49366      .   S
    N80    O84       1.40743      .   S
    Zr10   O84       2.32838  1_654   S
    N80    O85       1.46628      .   S
    Zr12   O85       2.43583      .   S
    N86    O87       1.36071      .   S
    Zr3    O87       2.50032      .   S
    N86    O88       1.37612      .   S
    Zr5    O88       2.33141      .   S
    N86    O89       1.66674      .   S
    Zr15   O89       2.74040      .   S
    N86    O90       1.40680      .   S
    Zr5    O90       2.32584      .   S
    N86    O91       1.46914      .   S
    Zr3    O91       2.44299      .   S
    N92    O93       1.40807      .   S
    Zr1    O93       2.32886  1_456   S
    N92    O94       1.46605      .   S
    Zr7    O94       2.43493      .   S
    N92    O95       1.66785      .   S
    Zr10   O95       2.74272      .   S
    N92    O96       1.35719      .   S
    Zr7    O96       2.49282      .   S
    N92    O97       1.37697      .   S
    Zr1    O97       2.33465  1_456   S
    N98    O99       1.36071      .   S
    Zr0    O99       2.50032      .   S
    N98    O100      1.66674      .   S
    Zr12   O100      2.74038      .   S
    N98    O101      1.40704      .   S
    Zr6    O101      2.32659  1_655   S
    N98    O102      1.46914      .   S
    Zr0    O102      2.44299      .   S
    N98    O103      1.37638      .   S
    Zr6    O103      2.33209  1_655   S
    N104   O105      1.36071      .   S
    Zr1    O105      2.50032      .   S
    N104   O106      1.37638      .   S
    Zr7    O106      2.33209  1_655   S
    N104   O107      1.66674      .   S
    Zr13   O107      2.74038      .   S
    N104   O108      1.40704      .   S
    Zr7    O108      2.32660  1_655   S
    N104   O109      1.46914      .   S
    Zr1    O109      2.44299      .   S
    N110   O111      1.37617      .   S
    Zr14   O111      2.33145      .   S
    N110   O112      1.66669      .   S
    Zr4    O112      2.74031      .   S
    N110   O113      1.46935      .   S
    Zr8    O113      2.44264      .   S
    N110   O114      1.36066      .   S
    Zr8    O114      2.50026      .   S
    N110   O115      1.40683      .   S
    Zr14   O115      2.32589      .   S
    N116   O117      1.37618      .   S
    Zr15   O117      2.33146      .   S
    N116   O118      1.46935      .   S
    Zr9    O118      2.44264      .   S
    N116   O119      1.66675      .   S
    Zr5    O119      2.74040      .   S
    N116   O120      1.36065      .   S
    Zr9    O120      2.50026      .   S
    N116   O121      1.40682      .   S
    Zr15   O121      2.32593      .   S
    N122   O123      1.16369  1_556   S
    Zr10   O123      2.23248      .   S
    N122   O124      1.16157  1_556   S
    Zr10   O124      2.23693      .   S
    N122   O125      1.16319      .   S
    Zr2    O125      2.23216      .   S
    N122   O126      1.16168      .   S
    Zr2    O126      2.23588      .   S
    N127   O128      1.16157  1_556   S
    Zr11   O128      2.23694      .   S
    N127   O129      1.16319      .   S
    Zr3    O129      2.23216      .   S
    N127   O130      1.16369  1_556   S
    Zr11   O130      2.23248      .   S
    N127   O131      1.16169      .   S
    Zr3    O131      2.23588      .   S
    N132   O133      1.16179  1_545   S
    Zr15   O133      2.23022      .   S
    N132   O134      1.16117      .   S
    Zr6    O134      2.23254      .   S
    N132   O135      1.16190      .   S
    Zr6    O135      2.23044      .   S
    N132   O136      1.16110  1_545   S
    Zr15   O136      2.23225      .   S
    N137   O138      1.16179      .   S
    Zr14   O138      2.23043      .   S
    N137   O139      1.16128      .   S
    Zr7    O139      2.23262      .   S
    N137   O140      1.16190      .   S
    Zr7    O140      2.23065      .   S
    N137   O141      1.16122      .   S
    Zr14   O141      2.23233      .   S
    N142   O143      1.16117      .   S
    Zr4    O143      2.23253      .   S
    N142   O144      1.16179  1_545   S
    Zr13   O144      2.23023      .   S
    N142   O145      1.16190      .   S
    Zr4    O145      2.23043      .   S
    N142   O146      1.16111  1_545   S
    Zr13   O146      2.23226      .   S
    N147   O148      1.16122      .   S
    Zr5    O148      2.23233      .   S
    N147   O149      1.16179      .   S
    Zr12   O149      2.23044      .   S
    N147   O150      1.16179      .   S
    Zr5    O150      2.23043      .   S
    N147   O151      1.16122      .   S
    Zr12   O151      2.23233      .   S
