# CIF file generated by openbabel 2.4.90, see http://openbabel.sf.net
data_I
_chemical_name_common ''
_cell_length_a 11.628
_cell_length_b 13.002
_cell_length_c 13.003
_cell_angle_alpha 95.91
_cell_angle_beta 106.121
_cell_angle_gamma 106.096
_space_group_name_H-M_alt 'P 1'
_space_group_name_Hall 'P 1'
loop_
    _symmetry_equiv_pos_as_xyz
    x,y,z
loop_
    _atom_site_label
    _atom_site_type_symbol
    _atom_site_fract_x
    _atom_site_fract_y
    _atom_site_fract_z
    _atom_site_occupancy
    Zr0     Zr   0.64111   0.17996   0.74326   1.000
    Zr1     Zr   0.85882   0.25676   0.82010   1.000
    Zr2     Zr   0.35885   0.82004   0.25670   1.000
    Zr3     Zr   0.14114   0.74324   0.17992   1.000
    O4      O    0.74996   0.21836   0.78168   1.000
    O5      O    0.25000   0.78164   0.21831   1.000
    N6      N    0.25007   0.28196   0.21737   1.000
    O7      O    0.19968   0.47694   0.19823   1.000
    O8      O    0.30041   0.08692   0.23771   1.000
    O9      O    0.19298   0.04869   0.19905   1.000
    O10     O    0.30723   0.51498   0.23611   1.000
    N11     N    0.99973   0.99960   0.50000   1.000
    O12     O    0.22889   0.92548   0.39496   1.000
    O13     O    0.77082   0.07410   0.60503   1.000
    N14     N    0.24989   0.78280   0.71802   1.000
    O15     O    0.30702   0.80098   0.95130   1.000
    O16     O    0.30027   0.80188   0.52304   1.000
    O17     O    0.19273   0.76391   0.48498   1.000
    O18     O    0.19959   0.76232   0.91304   1.000
    N19     N    0.74989   0.71802   0.78260   1.000
    O20     O    0.69955   0.91307   0.76230   1.000
    O21     O    0.80028   0.52305   0.80175   1.000
    O22     O    0.80698   0.95130   0.80096   1.000
    O23     O    0.69273   0.48501   0.76376   1.000
    N24     N    0.74997   0.21711   0.28198   1.000
    O25     O    0.80719   0.23603   0.51503   1.000
    O26     O    0.69289   0.19899   0.04870   1.000
    O27     O    0.80031   0.23765   0.08695   1.000
    O28     O    0.69965   0.19805   0.47696   1.000
    N29     N    0.49998   0.49998   0.99953   1.000
    O30     O    0.72900   0.39496   0.92545   1.000
    O31     O    0.27095   0.60501   0.07408   1.000
loop_
    _geom_bond_atom_site_label_1
    _geom_bond_atom_site_label_2
    _geom_bond_distance
    _geom_bond_site_symmetry_2
    _ccdc_geom_bond_type
    Zr0    O4        1.16107      .   S
    Zr1    O4        1.16107      .   S
    Zr2    O5        1.16104      .   S
    Zr3    O5        1.16104      .   S
    N6     O7        2.77576      .   S
    Zr3    O7        3.72766      .   S
    N6     O8        2.77823      .   S
    Zr2    O8        3.73551  1_565   S
    N6     O9        2.88850      .   S
    Zr3    O9        3.81878  1_565   S
    N6     O10       2.88479      .   S
    Zr2    O10       3.81263      .   S
    N11    O12       3.61504  1_655   S
    Zr2    O12       3.08956      .   S
    N11    O13       3.61447  1_565   S
    Zr0    O13       3.08985      .   S
    N14    O15       2.88867      .   S
    Zr2    O15       3.81832  1_554   S
    N14    O16       2.77609      .   S
    Zr2    O16       3.72866      .   S
    N14    O17       2.88479      .   S
    Zr3    O17       3.81273      .   S
    N14    O18       2.77843      .   S
    Zr3    O18       3.73625  1_554   S
    N19    O20       2.77830      .   S
    Zr0    O20       3.73567  1_545   S
    N19    O21       2.77567      .   S
    Zr1    O21       3.72761      .   S
    N19    O22       2.88856      .   S
    Zr1    O22       3.81887  1_545   S
    N19    O23       2.88459      .   S
    Zr0    O23       3.81259      .   S
    N24    O25       2.88484      .   S
    Zr1    O25       3.81272      .   S
    N24    O26       2.88881      .   S
    Zr0    O26       3.81892  1_556   S
    N24    O27       2.77879      .   S
    Zr1    O27       3.73621  1_556   S
    N24    O28       2.77574      .   S
    Zr0    O28       3.72791      .   S
    N29    O30       3.61311      .   S
    Zr1    O30       3.08701      .   S
    N29    O31       3.61583  1_556   S
    Zr3    O31       3.09053      .   S
