# CIF file generated by openbabel 2.4.90, see http://openbabel.sf.net
data_I
_chemical_name_common ''
_cell_length_a 3.9555
_cell_length_b 8.1165
_cell_length_c 26.6393
_cell_angle_alpha 90.0007
_cell_angle_beta 93.2013
_cell_angle_gamma 90.002
_space_group_name_H-M_alt 'P 1'
_space_group_name_Hall 'P 1'
loop_
    _symmetry_equiv_pos_as_xyz
    x,y,z
loop_
    _atom_site_label
    _atom_site_type_symbol
    _atom_site_fract_x
    _atom_site_fract_y
    _atom_site_fract_z
    _atom_site_occupancy
    K0      K    0.66612   0.77474   0.72435   1.000
    K1      K    0.16612   0.72525   0.22435   1.000
    K2      K    0.33346   0.22656   0.27552   1.000
    H3      H    0.29606   0.57632   0.82186   1.000
    H4      H    0.36000   0.45753   0.86762   1.000
    H5      H    0.19814   0.07650   0.67782   1.000
    H6      H    0.13260   0.95735   0.63218   1.000
    H7      H    0.69816   0.42349   0.17781   1.000
    H8      H    0.63261   0.54268   0.13217   1.000
    H9      H    0.79608   0.92372   0.32186   1.000
    H10     H    0.86010   0.04250   0.36761   1.000
    K11     K    0.83344   0.27344   0.77553   1.000
    O12     O    0.35615   0.45917   0.83111   1.000
    O13     O    0.13746   0.95929   0.66869   1.000
    O14     O    0.63748   0.54073   0.16868   1.000
    O15     O    0.85616   0.04085   0.33110   1.000
loop_
    _geom_bond_atom_site_label_1
    _geom_bond_atom_site_label_2
    _geom_bond_distance
    _geom_bond_site_symmetry_2
    _ccdc_geom_bond_type
    H8     O14       0.97198      .   S
    O14    H7        1.00783      .   S
    H9     O15       1.00721  1_565   S
    O15    H10       0.97195      .   S
    H6     O13       0.97198      .   S
    O13    H5        1.00759  1_565   S
    H3     O12       1.00742      .   S
    O12    H4        0.97196      .   S
    O12    K11       2.88810      .   S
    O13    K0        2.86824  1_455   S
    O14    K1        2.86836      .   S
    O15    K2        2.88810  1_655   S
