# CIF file generated by openbabel 2.4.90, see http://openbabel.sf.net
data_I
_chemical_name_common ''
_cell_length_a 3.9555
_cell_length_b 8.1165
_cell_length_c 26.6393
_cell_angle_alpha 90.0007
_cell_angle_beta 93.2013
_cell_angle_gamma 90.002
_space_group_name_H-M_alt 'P 1'
_space_group_name_Hall 'P 1'
loop_
    _symmetry_equiv_pos_as_xyz
    x,y,z
loop_
    _atom_site_label
    _atom_site_type_symbol
    _atom_site_fract_x
    _atom_site_fract_y
    _atom_site_fract_z
    _atom_site_occupancy
    N0      N    0.50040   0.49988   0.49992   1.000
    N1      N    0.00038   0.00010   0.99992   1.000
    Zr2     Zr   0.46141   0.44161   0.82403   1.000
    O3      O    0.63463   0.25831   0.85871   1.000
    Zr4     Zr   0.03358   0.94197   0.67576   1.000
    O5      O    0.86377   0.75873   0.64113   1.000
    Zr6     Zr   0.53359   0.55804   0.17575   1.000
    O7      O    0.36378   0.74128   0.14112   1.000
    Zr8     Zr   0.96145   0.05841   0.32402   1.000
    O9      O    0.13467   0.24169   0.35871   1.000
    O10     O    0.01295   0.92982   0.77830   1.000
    O11     O    0.98480   0.07056   0.22152   1.000
    O12     O    0.48477   0.42945   0.72153   1.000
    O13     O    0.51297   0.57018   0.27829   1.000
loop_
    _geom_bond_atom_site_label_1
    _geom_bond_atom_site_label_2
    _geom_bond_distance
    _geom_bond_site_symmetry_2
    _ccdc_geom_bond_type
    Zr2    O3        1.86170      .   S
    N1     O3        4.47522  1_455   S
    Zr4    O5        1.85604  1_455   S
    N0     O5        4.47505      .   S
    Zr6    O7        1.85604      .   S
    N1     O7        4.47505  1_546   S
    Zr8    O9        1.86156  1_655   S
    N0     O9        4.47519      .   S
    Zr4    O10       2.73904      .   S
    N1     O10       5.93430  1_545   S
    Zr8    O11       2.73900      .   S
    N1     O11       5.93484  1_456   S
    N0     O12       5.93488      .   S
    Zr2    O12       2.73900      .   S
    N0     O13       5.93452      .   S
    Zr6    O13       2.73917      .   S
