# CIF file generated by openbabel 2.4.90, see http://openbabel.sf.net
data_I
_chemical_name_common ''
_cell_length_a 3.9555
_cell_length_b 8.1165
_cell_length_c 26.6393
_cell_angle_alpha 90.0007
_cell_angle_beta 93.2013
_cell_angle_gamma 90.002
_space_group_name_H-M_alt 'P 1'
_space_group_name_Hall 'P 1'
loop_
    _symmetry_equiv_pos_as_xyz
    x,y,z
loop_
    _atom_site_label
    _atom_site_type_symbol
    _atom_site_fract_x
    _atom_site_fract_y
    _atom_site_fract_z
    _atom_site_occupancy
    N0      N    0.50040   0.49988   0.49992   1.000
    N1      N    0.00038   0.00010   0.99992   1.000
    Zr2     Zr   0.46141   0.44161   0.82403   1.000
    O3      O    0.37094   0.41300   0.72140   1.000
    O4      O    0.59861   0.44589   0.72166   1.000
    O5      O    0.63463   0.25831   0.85871   1.000
    Zr6     Zr   0.03358   0.94197   0.67576   1.000
    O7      O    0.86377   0.75873   0.64113   1.000
    O8      O    0.12610   0.91348   0.77841   1.000
    O9      O    0.89980   0.94615   0.77818   1.000
    Zr10    Zr   0.53359   0.55804   0.17575   1.000
    O11     O    0.62612   0.58652   0.27841   1.000
    O12     O    0.39982   0.55385   0.27817   1.000
    O13     O    0.36378   0.74128   0.14112   1.000
    Zr14    Zr   0.96145   0.05841   0.32402   1.000
    O15     O    0.13467   0.24169   0.35871   1.000
    O16     O    0.87097   0.08700   0.22139   1.000
    O17     O    0.09863   0.05412   0.22166   1.000
loop_
    _geom_bond_atom_site_label_1
    _geom_bond_atom_site_label_2
    _geom_bond_distance
    _geom_bond_site_symmetry_2
    _ccdc_geom_bond_type
    Zr2    O3        2.74729      .   S
    N0     O3        5.99222      .   S
    Zr2    O4        2.81023      .   S
    N0     O4        5.91437      .   S
    Zr2    O5        1.86170      .   S
    N1     O5        4.47522  1_455   S
    Zr6    O7        1.85604  1_455   S
    N0     O7        4.47505      .   S
    Zr6    O8        2.74839      .   S
    N1     O8        5.99066  1_545   S
    Zr6    O9        2.80829  1_455   S
    N1     O9        5.91434  1_445   S
    Zr10   O11       2.74853      .   S
    N0     O11       5.99086      .   S
    Zr10   O12       2.80841      .   S
    N0     O12       5.91457      .   S
    Zr10   O13       1.85604      .   S
    N1     O13       4.47505  1_546   S
    Zr14   O15       1.86156  1_655   S
    N0     O15       4.47519      .   S
    Zr14   O16       2.74731      .   S
    N1     O16       5.99215  1_456   S
    Zr14   O17       2.81021  1_655   S
    N1     O17       5.91434  1_556   S
