# CIF file generated by openbabel 2.4.90, see http://openbabel.sf.net
data_I
_chemical_name_common ''
_cell_length_a 3.9555
_cell_length_b 8.1165
_cell_length_c 26.6393
_cell_angle_alpha 90.0007
_cell_angle_beta 93.2013
_cell_angle_gamma 90.002
_space_group_name_H-M_alt 'P 1'
_space_group_name_Hall 'P 1'
loop_
    _symmetry_equiv_pos_as_xyz
    x,y,z
loop_
    _atom_site_label
    _atom_site_type_symbol
    _atom_site_fract_x
    _atom_site_fract_y
    _atom_site_fract_z
    _atom_site_occupancy
    Zr0     Zr   0.83344   0.27344   0.77553   1.000
    Zr1     Zr   0.66612   0.77474   0.72435   1.000
    Zr2     Zr   0.16612   0.72525   0.22435   1.000
    Zr3     Zr   0.33346   0.22656   0.27552   1.000
    Zr4     Zr   0.29606   0.57632   0.82186   1.000
    Zr5     Zr   0.36000   0.45753   0.86762   1.000
    Zr6     Zr   0.19814   0.07650   0.67782   1.000
    Zr7     Zr   0.13260   0.95735   0.63218   1.000
    Zr8     Zr   0.69816   0.42349   0.17781   1.000
    Zr9     Zr   0.63261   0.54268   0.13217   1.000
    Zr10    Zr   0.79608   0.92372   0.32186   1.000
    Zr11    Zr   0.86010   0.04250   0.36761   1.000
    Zr12    Zr   0.35615   0.45917   0.83111   1.000
    Zr13    Zr   0.13746   0.95929   0.66869   1.000
    Zr14    Zr   0.63748   0.54073   0.16868   1.000
    Zr15    Zr   0.85616   0.04085   0.33110   1.000
    O16     O    0.63505   0.54170   0.15042   1.000
    O17     O    0.66782   0.48211   0.17325   1.000
    O18     O    0.82612   0.98228   0.32648   1.000
    O19     O    0.85813   0.04168   0.34936   1.000
    O20     O    0.13503   0.95832   0.65043   1.000
    O21     O    0.16780   0.01790   0.67326   1.000
    O22     O    0.32610   0.51774   0.82648   1.000
    O23     O    0.35808   0.45835   0.84936   1.000
    O24     O    0.59479   0.36630   0.80332   1.000
    O25     O    0.90179   0.86702   0.69652   1.000
    O26     O    0.40180   0.63299   0.19651   1.000
    O27     O    0.09481   0.13371   0.30331   1.000
    N28     N    0.50040   0.49988   0.49992   1.000
    O29     O    0.28047   0.38440   0.61877   1.000
    O30     O    0.69397   0.57549   0.60650   1.000
    O31     O    0.73580   0.45016   0.61930   1.000
    O32     O    0.71864   0.61501   0.38107   1.000
    O33     O    0.30788   0.42498   0.39339   1.000
    O34     O    0.26604   0.54965   0.38060   1.000
    N35     N    0.00038   0.00010   0.99992   1.000
    O36     O    0.21862   0.88499   0.88106   1.000
    O37     O    0.80786   0.07501   0.89339   1.000
    O38     O    0.76602   0.95034   0.88060   1.000
    O39     O    0.78048   0.11560   0.11876   1.000
    O40     O    0.19397   0.92451   0.10650   1.000
    O41     O    0.23580   0.04984   0.11929   1.000
loop_
    _geom_bond_atom_site_label_1
    _geom_bond_atom_site_label_2
    _geom_bond_distance
    _geom_bond_site_symmetry_2
    _ccdc_geom_bond_type
    Zr9    O16       0.48599      .   S
    Zr14   O16       0.48599      .   S
    Zr14   O17       0.50391      .   S
    Zr8    O17       0.50391      .   S
    Zr10   O18       0.50361      .   S
    Zr15   O18       0.50361  1_545   S
    Zr15   O19       0.48597      .   S
    Zr11   O19       0.48597      .   S
    Zr7    O20       0.48599      .   S
    Zr13   O20       0.48599      .   S
    Zr13   O21       0.50380  1_565   S
    Zr6    O21       0.50380      .   S
    Zr4    O22       0.50371      .   S
    Zr12   O22       0.50371      .   S
    Zr12   O23       0.48598      .   S
    Zr5    O23       0.48598      .   S
    Zr12   O24       1.44405      .   S
    Zr0    O24       1.44405      .   S
    Zr13   O25       1.43412  1_455   S
    Zr1    O25       1.43412      .   S
    Zr14   O26       1.43418      .   S
    Zr2    O26       1.43418      .   S
    Zr15   O27       1.44405  1_655   S
    Zr3    O27       1.44405      .   S
    N28    O29       3.45922      .   S
    Zr0    O29       4.71193  1_655   S
    N28    O30       2.96327      .   S
    Zr1    O30       3.53865      .   S
    N28    O31       3.28816      .   S
    Zr0    O31       4.39880      .   S
    N28    O32       3.45661      .   S
    Zr2    O32       4.71050  1_455   S
    N28    O33       2.95998      .   S
    Zr3    O33       3.53538      .   S
    N28    O34       3.28592      .   S
    Zr2    O34       4.39656      .   S
    N35    O36       3.45658  1_545   S
    Zr1    O36       4.71042      .   S
    N35    O37       2.95987  1_455   S
    Zr0    O37       3.53527      .   S
    N35    O38       3.28580  1_445   S
    Zr1    O38       4.39649      .   S
    N35    O39       3.45914  1_456   S
    Zr3    O39       4.71182      .   S
    N35    O40       2.96331  1_546   S
    Zr2    O40       3.53875      .   S
    N35    O41       3.28814  1_556   S
    Zr3    O41       4.39864      .   S
