# CIF file generated by openbabel 2.4.90, see http://openbabel.sf.net
data_I
_chemical_name_common ''
_cell_length_a 14.864
_cell_length_b 13.096
_cell_length_c 13.1
_cell_angle_alpha 92.409
_cell_angle_beta 95.218
_cell_angle_gamma 84.857
_space_group_name_H-M_alt 'P 1'
_space_group_name_Hall 'P 1'
loop_
    _symmetry_equiv_pos_as_xyz
    x,y,z
loop_
    _atom_site_label
    _atom_site_type_symbol
    _atom_site_fract_x
    _atom_site_fract_y
    _atom_site_fract_z
    _atom_site_occupancy
    H0      H    0.04137   0.48714   0.72027   1.000
    H1      H    0.54138   0.48714   0.72027   1.000
    H2      H    0.07072   0.61029   0.73643   1.000
    H3      H    0.57072   0.61029   0.73643   1.000
    H4      H    0.46492   0.72770   0.13424   1.000
    H5      H    0.96492   0.72770   0.13424   1.000
    H6      H    0.42278   0.79700   0.03108   1.000
    H7      H    0.92279   0.79700   0.03108   1.000
    H8      H    0.24241   0.58812   0.83700   1.000
    H9      H    0.74241   0.58812   0.83702   1.000
    H10     H    0.27030   0.68859   0.04452   1.000
    H11     H    0.77030   0.68859   0.04452   1.000
    H12     H    0.45844   0.72014   0.48696   1.000
    H13     H    0.95845   0.72014   0.48696   1.000
    H14     H    0.42893   0.73648   0.60991   1.000
    H15     H    0.92893   0.73648   0.60991   1.000
    H16     H    0.03568   0.13353   0.72635   1.000
    H17     H    0.53569   0.13353   0.72630   1.000
    H18     H    0.07718   0.03065   0.79626   1.000
    H19     H    0.57719   0.03065   0.79626   1.000
    H20     H    0.25736   0.83724   0.58834   1.000
    H21     H    0.75736   0.83724   0.58834   1.000
    H22     H    0.22939   0.04496   0.68916   1.000
    H23     H    0.72939   0.04496   0.68916   1.000
    H24     H    0.45863   0.51287   0.27971   1.000
    H25     H    0.95864   0.51287   0.27971   1.000
    H26     H    0.42929   0.38972   0.26354   1.000
    H27     H    0.92929   0.38972   0.26354   1.000
    H28     H    0.03509   0.27230   0.86575   1.000
    H29     H    0.53509   0.27230   0.86575   1.000
    H30     H    0.07723   0.20301   0.96891   1.000
    H31     H    0.57723   0.20301   0.96891   1.000
    H32     H    0.25760   0.41189   0.16294   1.000
    H33     H    0.75760   0.41189   0.16294   1.000
    H34     H    0.22971   0.31141   0.95547   1.000
    H35     H    0.72971   0.31141   0.95547   1.000
    H36     H    0.04157   0.27988   0.51303   1.000
    H37     H    0.54157   0.27988   0.51303   1.000
    H38     H    0.07108   0.26354   0.39007   1.000
    H39     H    0.57108   0.26354   0.39007   1.000
    H40     H    0.46432   0.86647   0.27363   1.000
    H41     H    0.96433   0.86647   0.27363   1.000
    H42     H    0.42282   0.96936   0.20373   1.000
    H43     H    0.92283   0.96936   0.20370   1.000
    H44     H    0.24265   0.16278   0.41165   1.000
    H45     H    0.74265   0.16278   0.41165   1.000
    H46     H    0.27062   0.95504   0.31082   1.000
    H47     H    0.77062   0.95504   0.31082   1.000
    H48     H    0.48613   0.32598   0.67430   1.000
    H49     H    0.98613   0.32598   0.67430   1.000
    H50     H    0.01388   0.67401   0.32570   1.000
    H51     H    0.51389   0.67401   0.32570   1.000
    C52     C    0.30877   0.60780   0.82056   1.000
    C53     C    0.80877   0.60780   0.82056   1.000
    C54     C    0.44667   0.59396   0.78028   1.000
    C55     C    0.94667   0.59396   0.78028   1.000
    C56     C    0.19940   0.71126   0.02200   1.000
    C57     C    0.69941   0.71126   0.02200   1.000
    C58     C    0.05464   0.73902   0.02858   1.000
    C59     C    0.55465   0.73902   0.02858   1.000
    C60     C    0.19097   0.82076   0.60700   1.000
    C61     C    0.69097   0.82076   0.60700   1.000
    C62     C    0.05302   0.78044   0.59385   1.000
    C63     C    0.55303   0.78044   0.59385   1.000
    C64     C    0.30032   0.02294   0.71144   1.000
    C65     C    0.80033   0.02294   0.71144   1.000
    C66     C    0.44521   0.02851   0.73856   1.000
    C67     C    0.94522   0.02851   0.73856   1.000
    C68     C    0.19124   0.39220   0.17940   1.000
    C69     C    0.69124   0.39220   0.17940   1.000
    C70     C    0.05334   0.40604   0.21960   1.000
    C71     C    0.55334   0.40604   0.21969   1.000
    C72     C    0.30060   0.28874   0.97729   1.000
    C73     C    0.80061   0.28874   0.97729   1.000
    C74     C    0.44537   0.26099   0.97141   1.000
    C75     C    0.94537   0.26099   0.97141   1.000
    C76     C    0.30904   0.17926   0.39209   1.000
    C77     C    0.80904   0.17926   0.39209   1.000
    C78     C    0.44698   0.21958   0.40613   1.000
    C79     C    0.94699   0.21958   0.40613   1.000
    C80     C    0.19969   0.97706   0.28854   1.000
    C81     C    0.69969   0.97706   0.28854   1.000
    C82     C    0.05479   0.97149   0.26142   1.000
    C83     C    0.55480   0.97149   0.26140   1.000
    O84     O    0.56607   0.70204   0.29780   1.000
    C85     C    0.29535   0.97418   0.02582   1.000
    C86     C    0.79536   0.97419   0.02581   1.000
    C87     C    0.20465   0.02581   0.97410   1.000
    C88     C    0.70465   0.02581   0.97418   1.000
    N89     N    0.33225   0.70266   0.82060   1.000
    N90     N    0.83226   0.70266   0.82060   1.000
    N91     N    0.42086   0.69505   0.79309   1.000
    N92     N    0.92086   0.69505   0.79309   1.000
    N93     N    0.37720   0.53661   0.79600   1.000
    N94     N    0.87720   0.53661   0.79649   1.000
    N95     N    0.03169   0.55664   0.75915   1.000
    N96     N    0.53169   0.55664   0.75915   1.000
    N97     N    0.16997   0.76268   0.93971   1.000
    N98     N    0.66997   0.76268   0.93971   1.000
    N99     N    0.07626   0.78133   0.94273   1.000
    N100    N    0.57626   0.78133   0.94273   1.000
    N101    N    0.13086   0.69302   0.08005   1.000
    N102    N    0.63087   0.69302   0.08005   1.000
    N103    N    0.46931   0.73878   0.05803   1.000
    N104    N    0.96931   0.73878   0.05803   1.000
    N105    N    0.16751   0.82075   0.70269   1.000
    N106    N    0.66752   0.82075   0.70269   1.000
    N107    N    0.07887   0.79317   0.69496   1.000
    N108    N    0.57887   0.79317   0.69496   1.000
    N109    N    0.12249   0.79674   0.53662   1.000
    N110    N    0.62250   0.79674   0.53662   1.000
    N111    N    0.46798   0.75926   0.55636   1.000
    N112    N    0.96798   0.75926   0.55636   1.000
    N113    N    0.32979   0.93991   0.76281   1.000
    N114    N    0.82979   0.93991   0.76281   1.000
    N115    N    0.42356   0.94272   0.78104   1.000
    N116    N    0.92356   0.94272   0.78104   1.000
    N117    N    0.36893   0.08015   0.69280   1.000
    N118    N    0.86894   0.08015   0.69280   1.000
    N119    N    0.03068   0.05751   0.73790   1.000
    N120    N    0.53069   0.05751   0.73798   1.000
    N121    N    0.16775   0.29735   0.17933   1.000
    N122    N    0.66776   0.29735   0.17933   1.000
    N123    N    0.07915   0.30495   0.20688   1.000
    N124    N    0.57915   0.30495   0.20688   1.000
    N125    N    0.12280   0.46339   0.20347   1.000
    N126    N    0.62281   0.46339   0.20347   1.000
    N127    N    0.46832   0.44337   0.24082   1.000
    N128    N    0.96832   0.44337   0.24082   1.000
    N129    N    0.33004   0.23732   0.06027   1.000
    N130    N    0.83005   0.23732   0.06027   1.000
    N131    N    0.42375   0.21868   0.05726   1.000
    N132    N    0.92375   0.21868   0.05726   1.000
    N133    N    0.36915   0.30699   0.91994   1.000
    N134    N    0.86915   0.30699   0.91994   1.000
    N135    N    0.03070   0.26123   0.94196   1.000
    N136    N    0.53071   0.26123   0.94196   1.000
    N137    N    0.33249   0.17927   0.29729   1.000
    N138    N    0.83250   0.17927   0.29729   1.000
    N139    N    0.42113   0.20685   0.30500   1.000
    N140    N    0.92114   0.20685   0.30500   1.000
    N141    N    0.37751   0.20328   0.46337   1.000
    N142    N    0.87752   0.20328   0.46337   1.000
    N143    N    0.03203   0.24076   0.44362   1.000
    N144    N    0.53203   0.24076   0.44362   1.000
    N145    N    0.17022   0.06009   0.23718   1.000
    N146    N    0.67022   0.06009   0.23718   1.000
    N147    N    0.07645   0.05729   0.21895   1.000
    N148    N    0.57646   0.05729   0.21895   1.000
    N149    N    0.13108   0.91985   0.30714   1.000
    N150    N    0.63108   0.91985   0.30714   1.000
    N151    N    0.46933   0.94249   0.26201   1.000
    N152    N    0.96933   0.94249   0.26201   1.000
    O153    O    0.32882   0.89287   0.98271   1.000
    O154    O    0.82883   0.89288   0.98271   1.000
    O155    O    0.17112   0.98268   0.89284   1.000
    O156    O    0.67112   0.98268   0.89285   1.000
    O157    O    0.17119   0.10713   0.01728   1.000
    O158    O    0.67118   0.10712   0.01720   1.000
    O159    O    0.32888   0.01731   0.10715   1.000
    O160    O    0.82890   0.01732   0.10714   1.000
    O161    O    0.43395   0.29795   0.70220   1.000
    O162    O    0.93395   0.29795   0.70220   1.000
    O163    O    0.06606   0.70204   0.29780   1.000
loop_
    _geom_bond_atom_site_label_1
    _geom_bond_atom_site_label_2
    _geom_bond_distance
    _geom_bond_site_symmetry_2
    _ccdc_geom_bond_type
    O158   C88       1.26668  1_554   S
    O157   C87       1.26764  1_554   S
    C56    H10       1.08644      .   S
    C56    N101      1.36866      .   S
    C56    N97       1.31504  1_554   S
    C57    H11       1.08644      .   S
    C57    N102      1.36866      .   S
    C57    N98       1.31504  1_554   S
    C86    O160      1.26725  1_565   S
    C86    C88       1.56260  1_564   S
    C86    O154      1.26715  1_554   S
    C85    O159      1.26720  1_565   S
    C85    C87       1.56298  1_564   S
    C85    O153      1.26724  1_554   S
    C59    N103      1.35936      .   S
    C59    N102      1.36886      .   S
    C59    N100      1.35093  1_554   S
    C58    N104      1.35920  1_455   S
    C58    N101      1.36887      .   S
    C58    N99       1.35093  1_554   S
    H6     N103      1.03334      .   S
    H7     N104      1.03334      .   S
    N131   N129      1.39624      .   S
    N131   C74       1.35097  1_554   S
    N132   N130      1.39624      .   S
    N132   C75       1.35098  1_554   S
    N104   H5        1.02358      .   S
    N103   H4        1.02358      .   S
    N130   C73       1.32241  1_554   S
    N129   C72       1.32242  1_554   S
    H33    C69       1.08389      .   S
    H32    C68       1.08389      .   S
    N121   C68       1.32008      .   S
    N121   N123      1.39092      .   S
    N122   C69       1.32008      .   S
    N122   N124      1.39090      .   S
    C69    N126      1.36634      .   S
    C68    N125      1.36635      .   S
    N125   C70       1.36639      .   S
    N126   C71       1.36669      .   S
    H43    N152      1.03344      .   S
    H42    N151      1.03318      .   S
    N124   C71       1.35278      .   S
    N123   C70       1.35266      .   S
    N148   N146      1.39602      .   S
    N148   C83       1.35099  1_545   S
    N147   N145      1.39603      .   S
    N147   C82       1.35112  1_545   S
    C70    N128      1.36188  1_455   S
    C71    N127      1.36170      .   S
    N145   C80       1.32264  1_545   S
    N146   C81       1.32264  1_545   S
    N127   H26       1.02013      .   S
    N127   H24       1.02940      .   S
    N128   H27       1.02013      .   S
    N128   H25       1.02940      .   S
    C83    N151      1.35906      .   S
    C83    N150      1.36932      .   S
    C82    N152      1.35888  1_455   S
    C82    N149      1.36923      .   S
    N152   H41       1.02363      .   S
    N151   H40       1.02363      .   S
    C81    N150      1.36318      .   S
    C81    H47       1.08469      .   S
    C80    N149      1.36317      .   S
    C80    H46       1.08471      .   S
    N138   N140      1.39091      .   S
    N138   C77       1.32009      .   S
    N137   N139      1.39091      .   S
    N137   C76       1.32009      .   S
    O84    H51       0.99182      .   S
    O163   H50       0.99182      .   S
    N140   C79       1.35308      .   S
    N139   C78       1.35308      .   S
    H38    N143      1.02016      .   S
    H39    N144      1.02016      .   S
    C76    H44       1.08389      .   S
    C76    N141      1.36628      .   S
    C77    H45       1.08388      .   S
    C77    N142      1.36629      .   S
    C78    N144      1.36192      .   S
    C78    N141      1.36668      .   S
    C79    N143      1.36178  1_655   S
    C79    N142      1.36667      .   S
    N143   H36       1.02943      .   S
    N144   H37       1.02943      .   S
    H13    N112      1.02934      .   S
    H12    N111      1.02935      .   S
    N110   C63       1.36660      .   S
    N110   C61       1.35917      .   S
    N109   C62       1.36661      .   S
    N109   C60       1.35916      .   S
    N112   C62       1.36177  1_655   S
    N112   H15       1.02017      .   S
    N111   C63       1.36192      .   S
    N111   H14       1.02017      .   S
    H21    C61       1.08008      .   S
    H20    C60       1.08008      .   S
    C63    N108      1.35283      .   S
    C62    N107      1.35283      .   S
    C61    N106      1.33134      .   S
    C60    N105      1.33134      .   S
    H48    O161      0.99183      .   S
    H49    O162      0.99183      .   S
    H22    C64       1.08471      .   S
    H23    C65       1.08470      .   S
    N117   C64       1.36329      .   S
    N117   C66       1.36941      .   S
    N118   C65       1.36330      .   S
    N118   C67       1.36940      .   S
    N107   N105      1.39091      .   S
    N108   N106      1.39091      .   S
    C65    N114      1.32268  1_545   S
    C64    N113      1.32267  1_545   S
    H1     N96       1.02938      .   S
    H0     N95       1.02938      .   S
    H17    N120      1.02377      .   S
    H16    N119      1.02345      .   S
    H3     N96       1.02013      .   S
    H2     N95       1.02013      .   S
    N119   C67       1.35897  1_455   S
    N119   H18       1.03389      .   S
    N120   C66       1.35901      .   S
    N120   H19       1.03316      .   S
    C66    N115      1.35115  1_545   S
    C67    N116      1.35115  1_545   S
    N96    C54       1.36169      .   S
    N95    C55       1.36155  1_455   S
    N114   N116      1.39603      .   S
    N113   N115      1.39603      .   S
    C55    N92       1.35278      .   S
    C55    N94       1.36666      .   S
    C54    N91       1.35278      .   S
    C54    N93       1.36509      .   S
    N92    N90       1.39074      .   S
    N91    N89       1.39074      .   S
    N93    C52       1.36810      .   S
    N94    C53       1.36635      .   S
    C52    N89       1.32011      .   S
    C52    H8        1.08381      .   S
    C53    N90       1.32011      .   S
    C53    H9        1.08388      .   S
    H29    N136      1.02357      .   S
    H28    N135      1.02357      .   S
    O155   C87       1.26648  1_565   S
    O156   C88       1.26726  1_565   S
    N134   C75       1.36887      .   S
    N134   C73       1.36292      .   S
    N133   C74       1.36888      .   S
    N133   C72       1.36292      .   S
    N97    N99       1.39626      .   S
    N98    N100      1.39626      .   S
    N136   H31       1.03335      .   S
    N136   C74       1.35935      .   S
    N135   H30       1.03336      .   S
    N135   C75       1.35919  1_455   S
    H35    C73       1.08469      .   S
    H34    C72       1.08468      .   S
