# CIF file generated by openbabel 2.4.90, see http://openbabel.sf.net
data_I
_chemical_name_common ''
_cell_length_a 14.864
_cell_length_b 13.096
_cell_length_c 13.1
_cell_angle_alpha 92.409
_cell_angle_beta 95.218
_cell_angle_gamma 84.857
_space_group_name_H-M_alt 'P 1'
_space_group_name_Hall 'P 1'
loop_
    _symmetry_equiv_pos_as_xyz
    x,y,z
loop_
    _atom_site_label
    _atom_site_type_symbol
    _atom_site_fract_x
    _atom_site_fract_y
    _atom_site_fract_z
    _atom_site_occupancy
    C0      C    0.35946   0.38637   0.79091   1.000
    C1      C    0.85946   0.38637   0.79091   1.000
    C2      C    0.14053   0.79082   0.38645   1.000
    C3      C    0.64053   0.79082   0.38645   1.000
    C4      C    0.14055   0.61363   0.20900   1.000
    C5      C    0.64056   0.61363   0.20900   1.000
    C6      C    0.35948   0.20918   0.61354   1.000
    C7      C    0.85949   0.20918   0.61354   1.000
    C8      C    0.24998   0.84323   0.84327   1.000
    C9      C    0.74998   0.84323   0.84327   1.000
    C10     C    0.25003   0.15677   0.15670   1.000
    C11     C    0.75004   0.15677   0.15670   1.000
    C12     C    0.99995   0.81411   0.81402   1.000
    C13     C    0.49995   0.81411   0.81402   1.000
    C14     C    0.00000   0.18589   0.18597   1.000
    C15     C    0.50006   0.18589   0.18597   1.000
    C16     C    0.04137   0.48714   0.72027   1.000
    C17     C    0.54138   0.48714   0.72027   1.000
    C18     C    0.07072   0.61029   0.73643   1.000
    C19     C    0.57072   0.61029   0.73643   1.000
    C20     C    0.46492   0.72770   0.13424   1.000
    C21     C    0.96492   0.72770   0.13424   1.000
    C22     C    0.42278   0.79700   0.03108   1.000
    C23     C    0.92279   0.79700   0.03108   1.000
    C24     C    0.24241   0.58812   0.83700   1.000
    C25     C    0.74241   0.58812   0.83702   1.000
    C26     C    0.27030   0.68859   0.04452   1.000
    C27     C    0.77030   0.68859   0.04452   1.000
    C28     C    0.45844   0.72014   0.48696   1.000
    C29     C    0.95845   0.72014   0.48696   1.000
    C30     C    0.42893   0.73648   0.60991   1.000
    C31     C    0.92893   0.73648   0.60991   1.000
    C32     C    0.03568   0.13353   0.72635   1.000
    C33     C    0.53569   0.13353   0.72630   1.000
    C34     C    0.07718   0.03065   0.79626   1.000
    C35     C    0.57719   0.03065   0.79626   1.000
    C36     C    0.25736   0.83724   0.58834   1.000
    C37     C    0.75736   0.83724   0.58834   1.000
    C38     C    0.22939   0.04496   0.68916   1.000
    C39     C    0.72939   0.04496   0.68916   1.000
    C40     C    0.45863   0.51287   0.27971   1.000
    C41     C    0.95864   0.51287   0.27971   1.000
    C42     C    0.42929   0.38972   0.26354   1.000
    C43     C    0.92929   0.38972   0.26354   1.000
    C44     C    0.03509   0.27230   0.86575   1.000
    C45     C    0.53509   0.27230   0.86575   1.000
    C46     C    0.07723   0.20301   0.96891   1.000
    C47     C    0.57723   0.20301   0.96891   1.000
    C48     C    0.25760   0.41189   0.16294   1.000
    C49     C    0.75760   0.41189   0.16294   1.000
    C50     C    0.22971   0.31141   0.95547   1.000
    C51     C    0.72971   0.31141   0.95547   1.000
    C52     C    0.04157   0.27988   0.51303   1.000
    C53     C    0.54157   0.27988   0.51303   1.000
    C54     C    0.07108   0.26354   0.39007   1.000
    C55     C    0.57108   0.26354   0.39007   1.000
    C56     C    0.46432   0.86647   0.27363   1.000
    C57     C    0.96433   0.86647   0.27363   1.000
    C58     C    0.42282   0.96936   0.20373   1.000
    C59     C    0.92283   0.96936   0.20370   1.000
    C60     C    0.24265   0.16278   0.41165   1.000
    C61     C    0.74265   0.16278   0.41165   1.000
    C62     C    0.27062   0.95504   0.31082   1.000
    C63     C    0.77062   0.95504   0.31082   1.000
    C64     C    0.48613   0.32598   0.67430   1.000
    C65     C    0.98613   0.32598   0.67430   1.000
    C66     C    0.01388   0.67401   0.32570   1.000
    C67     C    0.51389   0.67401   0.32570   1.000
    C68     C    0.30877   0.60780   0.82056   1.000
    C69     C    0.80877   0.60780   0.82056   1.000
    C70     C    0.44667   0.59396   0.78028   1.000
    C71     C    0.94667   0.59396   0.78028   1.000
    C72     C    0.19940   0.71126   0.02200   1.000
    C73     C    0.69941   0.71126   0.02200   1.000
    C74     C    0.05464   0.73902   0.02858   1.000
    C75     C    0.55465   0.73902   0.02858   1.000
    C76     C    0.19097   0.82076   0.60700   1.000
    C77     C    0.69097   0.82076   0.60700   1.000
    C78     C    0.05302   0.78044   0.59385   1.000
    C79     C    0.55303   0.78044   0.59385   1.000
    C80     C    0.30032   0.02294   0.71144   1.000
    C81     C    0.80033   0.02294   0.71144   1.000
    C82     C    0.44521   0.02851   0.73856   1.000
    C83     C    0.94522   0.02851   0.73856   1.000
    C84     C    0.19124   0.39220   0.17940   1.000
    C85     C    0.69124   0.39220   0.17940   1.000
    C86     C    0.05334   0.40604   0.21960   1.000
    C87     C    0.55334   0.40604   0.21969   1.000
    C88     C    0.30060   0.28874   0.97729   1.000
    C89     C    0.80061   0.28874   0.97729   1.000
    C90     C    0.44537   0.26099   0.97141   1.000
    C91     C    0.94537   0.26099   0.97141   1.000
    C92     C    0.30904   0.17926   0.39209   1.000
    C93     C    0.80904   0.17926   0.39209   1.000
    C94     C    0.44698   0.21958   0.40613   1.000
    C95     C    0.94699   0.21958   0.40613   1.000
    C96     C    0.19969   0.97706   0.28854   1.000
    C97     C    0.69969   0.97706   0.28854   1.000
    C98     C    0.05479   0.97149   0.26142   1.000
    C99     C    0.55480   0.97149   0.26140   1.000
    C100    C    0.29535   0.97418   0.02582   1.000
    C101    C    0.79536   0.97419   0.02581   1.000
    C102    C    0.20465   0.02581   0.97410   1.000
    C103    C    0.70465   0.02581   0.97418   1.000
    C104    C    0.17240   0.31192   0.68787   1.000
    C105    C    0.67241   0.31192   0.68787   1.000
    C106    C    0.32761   0.68807   0.31212   1.000
    C107    C    0.82761   0.68807   0.31212   1.000
    C108    C    0.33225   0.70266   0.82060   1.000
    C109    C    0.83226   0.70266   0.82060   1.000
    C110    C    0.42086   0.69505   0.79309   1.000
    C111    C    0.92086   0.69505   0.79309   1.000
    C112    C    0.37720   0.53661   0.79600   1.000
    C113    C    0.87720   0.53661   0.79649   1.000
    C114    C    0.03169   0.55664   0.75915   1.000
    C115    C    0.53169   0.55664   0.75915   1.000
    C116    C    0.16997   0.76268   0.93971   1.000
    C117    C    0.66997   0.76268   0.93971   1.000
    C118    C    0.07626   0.78133   0.94273   1.000
    C119    C    0.57626   0.78133   0.94273   1.000
    C120    C    0.13086   0.69302   0.08005   1.000
    C121    C    0.63087   0.69302   0.08005   1.000
    C122    C    0.46931   0.73878   0.05803   1.000
    C123    C    0.96931   0.73878   0.05803   1.000
    C124    C    0.16751   0.82075   0.70269   1.000
    C125    C    0.66752   0.82075   0.70269   1.000
    C126    C    0.07887   0.79317   0.69496   1.000
    C127    C    0.57887   0.79317   0.69496   1.000
    C128    C    0.12249   0.79674   0.53662   1.000
    C129    C    0.62250   0.79674   0.53662   1.000
    C130    C    0.46798   0.75926   0.55636   1.000
    C131    C    0.96798   0.75926   0.55636   1.000
    C132    C    0.32979   0.93991   0.76281   1.000
    C133    C    0.82979   0.93991   0.76281   1.000
    C134    C    0.42356   0.94272   0.78104   1.000
    C135    C    0.92356   0.94272   0.78104   1.000
    C136    C    0.36893   0.08015   0.69280   1.000
    C137    C    0.86894   0.08015   0.69280   1.000
    C138    C    0.03068   0.05751   0.73790   1.000
    C139    C    0.53069   0.05751   0.73798   1.000
    C140    C    0.16775   0.29735   0.17933   1.000
    C141    C    0.66776   0.29735   0.17933   1.000
    C142    C    0.07915   0.30495   0.20688   1.000
    C143    C    0.57915   0.30495   0.20688   1.000
    C144    C    0.12280   0.46339   0.20347   1.000
    C145    C    0.62281   0.46339   0.20347   1.000
    C146    C    0.46832   0.44337   0.24082   1.000
    C147    C    0.96832   0.44337   0.24082   1.000
    C148    C    0.33004   0.23732   0.06027   1.000
    C149    C    0.83005   0.23732   0.06027   1.000
    C150    C    0.42375   0.21868   0.05726   1.000
    C151    C    0.92375   0.21868   0.05726   1.000
    C152    C    0.36915   0.30699   0.91994   1.000
    C153    C    0.86915   0.30699   0.91994   1.000
    C154    C    0.03070   0.26123   0.94196   1.000
    C155    C    0.53071   0.26123   0.94196   1.000
    C156    C    0.33249   0.17927   0.29729   1.000
    C157    C    0.83250   0.17927   0.29729   1.000
    C158    C    0.42113   0.20685   0.30500   1.000
    C159    C    0.92114   0.20685   0.30500   1.000
    C160    C    0.37751   0.20328   0.46337   1.000
    C161    C    0.87752   0.20328   0.46337   1.000
    C162    C    0.03203   0.24076   0.44362   1.000
    C163    C    0.53203   0.24076   0.44362   1.000
    C164    C    0.17022   0.06009   0.23718   1.000
    C165    C    0.67022   0.06009   0.23718   1.000
    C166    C    0.07645   0.05729   0.21895   1.000
    C167    C    0.57646   0.05729   0.21895   1.000
    C168    C    0.13108   0.91985   0.30714   1.000
    C169    C    0.63108   0.91985   0.30714   1.000
    C170    C    0.46933   0.94249   0.26201   1.000
    C171    C    0.96933   0.94249   0.26201   1.000
    C172    C    0.22605   0.39541   0.74216   1.000
    C173    C    0.72606   0.39541   0.74216   1.000
    C174    C    0.32882   0.89287   0.98271   1.000
    C175    C    0.82883   0.89288   0.98271   1.000
    C176    C    0.27305   0.73846   0.39650   1.000
    C177    C    0.77305   0.73846   0.39650   1.000
    C178    C    0.17112   0.98268   0.89284   1.000
    C179    C    0.67112   0.98268   0.89285   1.000
    C180    C    0.27396   0.60458   0.25784   1.000
    C181    C    0.77396   0.60458   0.25784   1.000
    C182    C    0.17119   0.10713   0.01728   1.000
    C183    C    0.67118   0.10712   0.01720   1.000
    C184    C    0.22696   0.26153   0.60343   1.000
    C185    C    0.72697   0.26153   0.60343   1.000
    C186    C    0.32888   0.01731   0.10715   1.000
    C187    C    0.82890   0.01732   0.10714   1.000
    C188    C    0.08651   0.36424   0.63620   1.000
    C189    C    0.58652   0.36424   0.63620   1.000
    C190    C    0.15245   0.23573   0.76059   1.000
    C191    C    0.65245   0.23573   0.76059   1.000
    C192    C    0.43395   0.29795   0.70220   1.000
    C193    C    0.93395   0.29795   0.70220   1.000
    C194    C    0.41350   0.63575   0.36379   1.000
    C195    C    0.91350   0.63575   0.36379   1.000
    C196    C    0.34756   0.76426   0.23940   1.000
    C197    C    0.84757   0.76426   0.23940   1.000
    C198    C    0.06606   0.70204   0.29780   1.000
    C199    C    0.56607   0.70204   0.29780   1.000
    O200    O    0.71061   0.13195   0.08695   1.000
    O201    O    0.68792   0.06647   0.99569   1.000
    O202    O    0.21061   0.13195   0.08699   1.000
    O203    O    0.18792   0.06647   0.99569   1.000
    O204    O    0.23485   0.69993   0.03326   1.000
    O205    O    0.16513   0.70214   0.05102   1.000
    O206    O    0.18469   0.73697   0.98085   1.000
    O207    O    0.73486   0.69993   0.03326   1.000
    O208    O    0.66514   0.70214   0.05102   1.000
    O209    O    0.68469   0.73697   0.98085   1.000
    O210    O    0.81213   0.99575   0.06647   1.000
    O211    O    0.75001   0.00000   0.99999   1.000
    O212    O    0.81210   0.93353   0.00426   1.000
    O213    O    0.31212   0.99575   0.06648   1.000
    O214    O    0.25000   0.00000   0.99996   1.000
    O215    O    0.31209   0.93353   0.00426   1.000
    O216    O    0.51198   0.73890   0.04330   1.000
    O217    O    0.59276   0.71602   0.05431   1.000
    O218    O    0.56546   0.76017   0.98565   1.000
    O219    O    0.01198   0.73890   0.04330   1.000
    O220    O    0.09275   0.71602   0.05431   1.000
    O221    O    0.06545   0.76017   0.98565   1.000
    O222    O    0.44604   0.76789   0.04455   1.000
    O223    O    0.94605   0.76789   0.04455   1.000
    O224    O    0.37690   0.22800   0.05876   1.000
    O225    O    0.46191   0.20228   0.12161   1.000
    O226    O    0.43456   0.23983   0.01433   1.000
    O227    O    0.87690   0.22800   0.05876   1.000
    O228    O    0.96188   0.20228   0.12161   1.000
    O229    O    0.93456   0.23983   0.01433   1.000
    O230    O    0.96712   0.73324   0.09613   1.000
    O231    O    0.46711   0.73324   0.09613   1.000
    O232    O    0.79004   0.19705   0.10848   1.000
    O233    O    0.81533   0.26303   0.01878   1.000
    O234    O    0.29004   0.19705   0.10848   1.000
    O235    O    0.31532   0.26303   0.01878   1.000
    O236    O    0.13571   0.65332   0.14452   1.000
    O237    O    0.63571   0.65332   0.14452   1.000
    O238    O    0.78947   0.08705   0.13192   1.000
    O239    O    0.28946   0.08704   0.13192   1.000
    O240    O    0.20889   0.22706   0.16801   1.000
    O241    O    0.21013   0.10843   0.19694   1.000
    O242    O    0.29126   0.16802   0.22699   1.000
    O243    O    0.70890   0.22706   0.16801   1.000
    O244    O    0.71013   0.10843   0.19694   1.000
    O245    O    0.79127   0.16802   0.22699   1.000
    O246    O    0.72442   0.40205   0.17117   1.000
    O247    O    0.22442   0.40205   0.17117   1.000
    O248    O    0.17950   0.34477   0.17936   1.000
    O249    O    0.12345   0.30115   0.19310   1.000
    O250    O    0.67950   0.34477   0.17936   1.000
    O251    O    0.62345   0.30115   0.19310   1.000
    O252    O    0.65703   0.42780   0.19143   1.000
    O253    O    0.15702   0.42780   0.19143   1.000
    O254    O    0.03957   0.24542   0.19642   1.000
    O255    O    0.03822   0.12159   0.20246   1.000
    O256    O    0.96057   0.19637   0.24548   1.000
    O257    O    0.53961   0.24542   0.19642   1.000
    O258    O    0.53826   0.12159   0.20246   1.000
    O259    O    0.46060   0.19637   0.24548   1.000
    O260    O    0.13168   0.53851   0.20623   1.000
    O261    O    0.08807   0.43472   0.21153   1.000
    O262    O    0.63168   0.53851   0.20623   1.000
    O263    O    0.58808   0.43472   0.21158   1.000
    O264    O    0.94608   0.95592   0.23285   1.000
    O265    O    0.44608   0.95592   0.23287   1.000
    O266    O    0.56625   0.35550   0.21328   1.000
    O267    O    0.06624   0.35550   0.21324   1.000
    O268    O    0.70726   0.60911   0.23342   1.000
    O269    O    0.20725   0.60911   0.23342   1.000
    O270    O    0.62334   0.05869   0.22807   1.000
    O271    O    0.56563   0.01439   0.24017   1.000
    O272    O    0.12333   0.05869   0.22807   1.000
    O273    O    0.06562   0.01439   0.24018   1.000
    O274    O    0.01083   0.42470   0.23021   1.000
    O275    O    0.51083   0.42470   0.23025   1.000
    O276    O    0.18495   0.01858   0.26286   1.000
    O277    O    0.68496   0.01858   0.26286   1.000
    O278    O    0.33758   0.72616   0.27576   1.000
    O279    O    0.83759   0.72616   0.27576   1.000
    O280    O    0.44880   0.41655   0.25218   1.000
    O281    O    0.46347   0.47812   0.26026   1.000
    O282    O    0.94881   0.41655   0.25218   1.000
    O283    O    0.96348   0.47812   0.26026   1.000
    O284    O    0.80079   0.64633   0.28498   1.000
    O285    O    0.30078   0.64633   0.28498   1.000
    O286    O    0.51206   0.95699   0.26171   1.000
    O287    O    0.59294   0.94567   0.28427   1.000
    O288    O    0.01206   0.95699   0.26171   1.000
    O289    O    0.09294   0.94567   0.28428   1.000
    O290    O    0.96683   0.90448   0.26782   1.000
    O291    O    0.46683   0.90448   0.26782   1.000
    O292    O    0.66539   0.94846   0.29784   1.000
    O293    O    0.73516   0.96605   0.29968   1.000
    O294    O    0.16538   0.94846   0.29784   1.000
    O295    O    0.23515   0.96605   0.29968   1.000
    O296    O    0.87682   0.19306   0.30114   1.000
    O297    O    0.82077   0.17926   0.34469   1.000
    O298    O    0.37681   0.19306   0.30114   1.000
    O299    O    0.32077   0.17926   0.34469   1.000
    O300    O    0.53998   0.68803   0.31175   1.000
    O301    O    0.60330   0.74643   0.34212   1.000
    O302    O    0.03997   0.68803   0.31175   1.000
    O303    O    0.10329   0.74643   0.34212   1.000
    O304    O    0.93406   0.21321   0.35556   1.000
    O305    O    0.43406   0.21321   0.35556   1.000
    O306    O    0.13580   0.85534   0.34679   1.000
    O307    O    0.63581   0.85534   0.34679   1.000
    O308    O    0.37055   0.66191   0.33795   1.000
    O309    O    0.30033   0.71326   0.35431   1.000
    O310    O    0.87056   0.66191   0.33795   1.000
    O311    O    0.80033   0.71326   0.35431   1.000
    O312    O    0.20679   0.76464   0.39148   1.000
    O313    O    0.13151   0.79378   0.46153   1.000
    O314    O    0.70679   0.76464   0.39148   1.000
    O315    O    0.63151   0.79378   0.46153   1.000
    O316    O    0.05155   0.25215   0.41684   1.000
    O317    O    0.55156   0.25215   0.41684   1.000
    O318    O    0.27584   0.17102   0.40187   1.000
    O319    O    0.34327   0.19127   0.42773   1.000
    O320    O    0.77585   0.17102   0.40187   1.000
    O321    O    0.84328   0.19127   0.42773   1.000
    O322    O    0.48951   0.23017   0.42487   1.000
    O323    O    0.41225   0.21143   0.43475   1.000
    O324    O    0.98951   0.23017   0.42487   1.000
    O325    O    0.91225   0.21143   0.43475   1.000
    O326    O    0.03680   0.26032   0.47832   1.000
    O327    O    0.53680   0.26032   0.47832   1.000
    O328    O    0.86850   0.20623   0.53845   1.000
    O329    O    0.36850   0.20623   0.53845   1.000
    O330    O    0.96322   0.73970   0.52166   1.000
    O331    O    0.46321   0.73970   0.52166   1.000
    O332    O    0.58776   0.78859   0.56523   1.000
    O333    O    0.65674   0.80875   0.57181   1.000
    O334    O    0.08776   0.78859   0.56523   1.000
    O335    O    0.15673   0.80875   0.57181   1.000
    O336    O    0.01050   0.76985   0.57510   1.000
    O337    O    0.94846   0.74787   0.58313   1.000
    O338    O    0.51050   0.76985   0.57510   1.000
    O339    O    0.44845   0.74787   0.58313   1.000
    O340    O    0.72417   0.82900   0.59767   1.000
    O341    O    0.22416   0.82900   0.59767   1.000
    O342    O    0.56595   0.78681   0.64440   1.000
    O343    O    0.06595   0.78681   0.64440   1.000
    O344    O    0.29322   0.23536   0.60848   1.000
    O345    O    0.19968   0.28673   0.64565   1.000
    O346    O    0.79323   0.23536   0.60848   1.000
    O347    O    0.69969   0.28673   0.64565   1.000
    O348    O    0.67924   0.82076   0.65484   1.000
    O349    O    0.17924   0.82076   0.65484   1.000
    O350    O    0.86421   0.14466   0.65317   1.000
    O351    O    0.36421   0.14466   0.65317   1.000
    O352    O    0.12946   0.33808   0.66203   1.000
    O353    O    0.62946   0.33808   0.66203   1.000
    O354    O    0.46004   0.31196   0.68825   1.000
    O355    O    0.96004   0.31196   0.68825   1.000
    O356    O    0.19923   0.35366   0.71501   1.000
    O357    O    0.16243   0.27383   0.72423   1.000
    O358    O    0.69923   0.35366   0.71501   1.000
    O359    O    0.66243   0.27383   0.72423   1.000
    O360    O    0.26486   0.03395   0.70030   1.000
    O361    O    0.76486   0.03395   0.70030   1.000
    O362    O    0.33463   0.05154   0.70212   1.000
    O363    O    0.40707   0.05433   0.71568   1.000
    O364    O    0.83463   0.05154   0.70212   1.000
    O365    O    0.90708   0.05433   0.71568   1.000
    O366    O    0.12319   0.80696   0.69882   1.000
    O367    O    0.03941   0.80364   0.75449   1.000
    O368    O    0.62319   0.80696   0.69882   1.000
    O369    O    0.53941   0.80364   0.75449   1.000
    O370    O    0.39670   0.34216   0.74655   1.000
    O371    O    0.89671   0.34216   0.74655   1.000
    O372    O    0.20874   0.83199   0.77298   1.000
    O373    O    0.70875   0.83199   0.77298   1.000
    O374    O    0.81506   0.98143   0.73712   1.000
    O375    O    0.31506   0.98142   0.73712   1.000
    O376    O    0.53654   0.52189   0.73971   1.000
    O377    O    0.03653   0.52189   0.73971   1.000
    O378    O    0.53319   0.09552   0.73214   1.000
    O379    O    0.03318   0.09552   0.73212   1.000
    O380    O    0.55121   0.58346   0.74779   1.000
    O381    O    0.05120   0.58346   0.74779   1.000
    O382    O    0.98795   0.04301   0.73823   1.000
    O383    O    0.05393   0.04408   0.76708   1.000
    O384    O    0.48795   0.04301   0.73827   1.000
    O385    O    0.55394   0.04408   0.76712   1.000
    O386    O    0.43439   0.98561   0.75980   1.000
    O387    O    0.93439   0.98561   0.75980   1.000
    O388    O    0.79276   0.39089   0.76653   1.000
    O389    O    0.29276   0.39089   0.76653   1.000
    O390    O    0.48918   0.57530   0.76971   1.000
    O391    O    0.98918   0.57530   0.76971   1.000
    O392    O    0.87668   0.94131   0.77192   1.000
    O393    O    0.78989   0.89157   0.80304   1.000
    O394    O    0.37667   0.94131   0.77192   1.000
    O395    O    0.28988   0.89157   0.80304   1.000
    O396    O    0.93377   0.64451   0.78668   1.000
    O397    O    0.91194   0.56529   0.78838   1.000
    O398    O    0.43376   0.64451   0.78668   1.000
    O399    O    0.41193   0.56529   0.78814   1.000
    O400    O    0.96176   0.87841   0.79753   1.000
    O401    O    0.46175   0.87841   0.79753   1.000
    O402    O    0.36833   0.46149   0.79345   1.000
    O403    O    0.36430   0.34668   0.85542   1.000
    O404    O    0.86833   0.46149   0.79370   1.000
    O405    O    0.86431   0.34668   0.85542   1.000
    O406    O    0.96041   0.75458   0.80355   1.000
    O407    O    0.87656   0.69886   0.80684   1.000
    O408    O    0.46040   0.75458   0.80355   1.000
    O409    O    0.37656   0.69886   0.80684   1.000
    O410    O    0.34298   0.57221   0.80828   1.000
    O411    O    0.84299   0.57221   0.80852   1.000
    O412    O    0.53811   0.79772   0.87837   1.000
    O413    O    0.03811   0.79772   0.87837   1.000
    O414    O    0.32051   0.65523   0.82058   1.000
    O415    O    0.27559   0.59796   0.82878   1.000
    O416    O    0.82051   0.65523   0.82058   1.000
    O417    O    0.77559   0.59796   0.82879   1.000
    O418    O    0.29111   0.77295   0.83193   1.000
    O419    O    0.79112   0.77295   0.83193   1.000
    O420    O    0.21055   0.91296   0.86805   1.000
    O421    O    0.20997   0.80296   0.89149   1.000
    O422    O    0.28940   0.86805   0.91299   1.000
    O423    O    0.71055   0.91296   0.86806   1.000
    O424    O    0.70998   0.80296   0.89149   1.000
    O425    O    0.78941   0.86806   0.91299   1.000
    O426    O    0.53290   0.26677   0.90385   1.000
    O427    O    0.03289   0.26677   0.90385   1.000
    O428    O    0.18788   0.00425   0.93347   1.000
    O429    O    0.68788   0.00424   0.93351   1.000
    O430    O    0.90726   0.28399   0.94567   1.000
    O431    O    0.83488   0.29787   0.94861   1.000
    O432    O    0.40726   0.28399   0.94567   1.000
    O433    O    0.33488   0.29787   0.94861   1.000
    O434    O    0.12311   0.77200   0.94122   1.000
    O435    O    0.62312   0.77200   0.94122   1.000
    O436    O    0.55397   0.23212   0.95543   1.000
    O437    O    0.48804   0.26111   0.95669   1.000
    O438    O    0.05396   0.23212   0.95543   1.000
    O439    O    0.98804   0.26111   0.95669   1.000
    O440    O    0.76516   0.30008   0.96638   1.000
    O441    O    0.26516   0.30008   0.96638   1.000
    O442    O    0.39672   0.25356   0.65787   1.000
    O443    O    0.89672   0.25356   0.65787   1.000
    O444    O    0.10331   0.65784   0.25340   1.000
    O445    O    0.60331   0.65784   0.25340   1.000
loop_
    _geom_bond_atom_site_label_1
    _geom_bond_atom_site_label_2
    _geom_bond_distance
    _geom_bond_site_symmetry_2
    _ccdc_geom_bond_type
    C183   O200      1.09354      .   S
    C11    O200      1.09354      .   S
    C183   O201      0.63334  1_554   S
    C103   O201      0.63334      .   S
    C182   O202      1.09310      .   S
    C10    O202      1.09310      .   S
    C182   O203      0.63382  1_554   S
    C102   O203      0.63382      .   S
    C72    O204      0.54322      .   S
    C26    O204      0.54322      .   S
    C72    O205      0.68433      .   S
    C120   O205      0.68433      .   S
    C72    O206      0.65752  1_554   S
    C116   O206      0.65752      .   S
    C73    O207      0.54322      .   S
    C27    O207      0.54322      .   S
    C73    O208      0.68433      .   S
    C121   O208      0.68433      .   S
    C73    O209      0.65752  1_554   S
    C117   O209      0.65752      .   S
    C101   O210      0.63362      .   S
    C187   O210      0.63362  1_545   S
    C101   O211      0.78130  1_564   S
    C103   O211      0.78130      .   S
    C101   O212      0.63357      .   S
    C175   O212      0.63357  1_556   S
    C100   O213      0.63360      .   S
    C186   O213      0.63360  1_545   S
    C100   O214      0.78149  1_564   S
    C102   O214      0.78149      .   S
    C100   O215      0.63362      .   S
    C174   O215      0.63362  1_556   S
    C75    O216      0.67968      .   S
    C122   O216      0.67968      .   S
    C75    O217      0.68443      .   S
    C121   O217      0.68443      .   S
    C75    O218      0.67546  1_554   S
    C119   O218      0.67546      .   S
    C74    O219      0.67960      .   S
    C123   O219      0.67960  1_655   S
    C74    O220      0.68444      .   S
    C120   O220      0.68444      .   S
    C74    O221      0.67547  1_554   S
    C118   O221      0.67547      .   S
    C22    O222      0.51667      .   S
    C122   O222      0.51667      .   S
    C23    O223      0.51667      .   S
    C123   O223      0.51667      .   S
    C150   O224      0.69812      .   S
    C148   O224      0.69812      .   S
    C150   O225      0.99243      .   S
    C15    O225      0.99243      .   S
    C150   O226      0.67548      .   S
    C90    O226      0.67548  1_556   S
    C151   O227      0.69812      .   S
    C149   O227      0.69812      .   S
    C151   O228      0.99219      .   S
    C14    O228      0.99219  1_455   S
    C151   O229      0.67549      .   S
    C91    O229      0.67549  1_556   S
    C123   O230      0.51179      .   S
    C21    O230      0.51179      .   S
    C122   O231      0.51179      .   S
    C20    O231      0.51179      .   S
    C149   O232      1.08778      .   S
    C11    O232      1.08778      .   S
    C149   O233      0.66120      .   S
    C89    O233      0.66120  1_556   S
    C148   O234      1.08778      .   S
    C10    O234      1.08778      .   S
    C148   O235      0.66121      .   S
    C88    O235      0.66121  1_556   S
    C120   O236      1.00396      .   S
    C4     O236      1.00396      .   S
    C121   O237      1.00396      .   S
    C5     O237      1.00396      .   S
    C187   O238      1.09382      .   S
    C11    O238      1.09382      .   S
    C186   O239      1.09381      .   S
    C10    O239      1.09381      .   S
    C10    O240      1.07111      .   S
    C140   O240      1.07111      .   S
    C10    O241      1.08755      .   S
    C164   O241      1.08755      .   S
    C10    O242      1.07117      .   S
    C156   O242      1.07117      .   S
    C11    O243      1.07111      .   S
    C141   O243      1.07111      .   S
    C11    O244      1.08755      .   S
    C165   O244      1.08755      .   S
    C11    O245      1.07117      .   S
    C157   O245      1.07117      .   S
    C49    O246      0.54194      .   S
    C85    O246      0.54194      .   S
    C48    O247      0.54194      .   S
    C84    O247      0.54194      .   S
    C140   O248      0.66004      .   S
    C84    O248      0.66004      .   S
    C140   O249      0.69546      .   S
    C142   O249      0.69546      .   S
    C141   O250      0.66004      .   S
    C85    O250      0.66004      .   S
    C141   O251      0.69545      .   S
    C143   O251      0.69545      .   S
    C85    O252      0.68317      .   S
    C145   O252      0.68317      .   S
    C84    O253      0.68317      .   S
    C144   O253      0.68317      .   S
    C14    O254      1.01546      .   S
    C142   O254      1.01546      .   S
    C14    O255      0.99286      .   S
    C166   O255      0.99286      .   S
    C14    O256      1.01483  1_455   S
    C159   O256      1.01483      .   S
    C15    O257      1.01518      .   S
    C143   O257      1.01518      .   S
    C15    O258      0.99265      .   S
    C167   O258      0.99265      .   S
    C15    O259      1.01516      .   S
    C158   O259      1.01516      .   S
    C144   O260      1.00294      .   S
    C4     O260      1.00294      .   S
    C144   O261      0.68319      .   S
    C86    O261      0.68319      .   S
    C145   O262      1.00294      .   S
    C5     O262      1.00294      .   S
    C145   O263      0.68334      .   S
    C87    O263      0.68334      .   S
    C59    O264      0.51672      .   S
    C171   O264      0.51672      .   S
    C58    O265      0.51659      .   S
    C170   O265      0.51659      .   S
    C143   O266      0.67639      .   S
    C87    O266      0.67639      .   S
    C142   O267      0.67633      .   S
    C86    O267      0.67633      .   S
    C5     O268      1.01104      .   S
    C181   O268      1.01104      .   S
    C4     O269      1.01104      .   S
    C180   O269      1.01104      .   S
    C167   O270      0.69801      .   S
    C165   O270      0.69801      .   S
    C167   O271      0.67550      .   S
    C99    O271      0.67550  1_565   S
    C166   O272      0.69802      .   S
    C164   O272      0.69802      .   S
    C166   O273      0.67556      .   S
    C98    O273      0.67556  1_565   S
    C86    O274      0.68094      .   S
    C147   O274      0.68094  1_655   S
    C87    O275      0.68085      .   S
    C146   O275      0.68085      .   S
    C164   O276      0.66132      .   S
    C96    O276      0.66132  1_565   S
    C165   O277      0.66132      .   S
    C97    O277      0.66132  1_565   S
    C196   O278      0.73746      .   S
    C106   O278      0.73746      .   S
    C197   O279      0.73746      .   S
    C107   O279      0.73746      .   S
    C146   O280      0.51006      .   S
    C42    O280      0.51006      .   S
    C146   O281      0.51470      .   S
    C40    O281      0.51470      .   S
    C147   O282      0.51006      .   S
    C43    O282      0.51006      .   S
    C147   O283      0.51470      .   S
    C41    O283      0.51470      .   S
    C181   O284      0.76235      .   S
    C107   O284      0.76235      .   S
    C180   O285      0.76235      .   S
    C106   O285      0.76235      .   S
    C99    O286      0.67953      .   S
    C170   O286      0.67953      .   S
    C99    O287      0.68466      .   S
    C169   O287      0.68466      .   S
    C98    O288      0.67944      .   S
    C171   O288      0.67944  1_655   S
    C98    O289      0.68462      .   S
    C168   O289      0.68462      .   S
    C171   O290      0.51181      .   S
    C57    O290      0.51181      .   S
    C170   O291      0.51181      .   S
    C56    O291      0.51181      .   S
    C97    O292      0.68159      .   S
    C169   O292      0.68159      .   S
    C97    O293      0.54235      .   S
    C63    O293      0.54235      .   S
    C96    O294      0.68158      .   S
    C168   O294      0.68158      .   S
    C96    O295      0.54235      .   S
    C62    O295      0.54235      .   S
    C157   O296      0.69546      .   S
    C159   O296      0.69546      .   S
    C157   O297      0.66005      .   S
    C93    O297      0.66005      .   S
    C156   O298      0.69546      .   S
    C158   O298      0.69546      .   S
    C156   O299      0.66004      .   S
    C92    O299      0.66004      .   S
    C199   O300      0.49591      .   S
    C67    O300      0.49591      .   S
    C199   O301      0.97580      .   S
    C3     O301      0.97580      .   S
    C198   O302      0.49591      .   S
    C66    O302      0.49591      .   S
    C198   O303      0.97580      .   S
    C2     O303      0.97580      .   S
    C159   O304      0.67654      .   S
    C95    O304      0.67654      .   S
    C158   O305      0.67654      .   S
    C94    O305      0.67654      .   S
    C168   O306      1.00415      .   S
    C2     O306      1.00415      .   S
    C169   O307      1.00415      .   S
    C3     O307      1.00415      .   S
    C106   O308      0.75539      .   S
    C194   O308      0.75539      .   S
    C106   O309      0.76171      .   S
    C176   O309      0.76171      .   S
    C107   O310      0.75539      .   S
    C195   O310      0.75539      .   S
    C107   O311      0.76171      .   S
    C177   O311      0.76171      .   S
    C2     O312      1.01067      .   S
    C176   O312      1.01067      .   S
    C2     O313      1.00339      .   S
    C128   O313      1.00339      .   S
    C3     O314      1.01067      .   S
    C177   O314      1.01067      .   S
    C3     O315      1.00339      .   S
    C129   O315      1.00339      .   S
    C54    O316      0.51008      .   S
    C162   O316      0.51008      .   S
    C55    O317      0.51008      .   S
    C163   O317      0.51008      .   S
    C92    O318      0.54195      .   S
    C60    O318      0.54195      .   S
    C92    O319      0.68314      .   S
    C160   O319      0.68314      .   S
    C93    O320      0.54194      .   S
    C61    O320      0.54194      .   S
    C93    O321      0.68314      .   S
    C161   O321      0.68314      .   S
    C94    O322      0.68096      .   S
    C163   O322      0.68096      .   S
    C94    O323      0.68334      .   S
    C160   O323      0.68334      .   S
    C95    O324      0.68089      .   S
    C162   O324      0.68089  1_455   S
    C95    O325      0.68334      .   S
    C161   O325      0.68334      .   S
    C162   O326      0.51472      .   S
    C52    O326      0.51472      .   S
    C163   O327      0.51472      .   S
    C53    O327      0.51472      .   S
    C161   O328      1.00339      .   S
    C7     O328      1.00339      .   S
    C160   O329      1.00339      .   S
    C6     O329      1.00339      .   S
    C29    O330      0.51467      .   S
    C131   O330      0.51467      .   S
    C28    O331      0.51467      .   S
    C130   O331      0.51467      .   S
    C129   O332      0.68330      .   S
    C79    O332      0.68330      .   S
    C129   O333      0.67958      .   S
    C77    O333      0.67958      .   S
    C128   O334      0.68330      .   S
    C78    O334      0.68330      .   S
    C128   O335      0.67958      .   S
    C76    O335      0.67958      .   S
    C131   O336      0.68088  1_655   S
    C78    O336      0.68088      .   S
    C131   O337      0.51009      .   S
    C31    O337      0.51009      .   S
    C130   O338      0.68096      .   S
    C79    O338      0.68096      .   S
    C130   O339      0.51009      .   S
    C30    O339      0.51009      .   S
    C37    O340      0.54004      .   S
    C77    O340      0.54004      .   S
    C36    O341      0.54004      .   S
    C76    O341      0.54004      .   S
    C79    O342      0.67641      .   S
    C127   O342      0.67641      .   S
    C78    O343      0.67642      .   S
    C126   O343      0.67642      .   S
    C184   O344      1.01066      .   S
    C6     O344      1.01066      .   S
    C184   O345      0.76200      .   S
    C104   O345      0.76200      .   S
    C185   O346      1.01066      .   S
    C7     O346      1.01066      .   S
    C185   O347      0.76200      .   S
    C105   O347      0.76200      .   S
    C77    O348      0.66567      .   S
    C125   O348      0.66567      .   S
    C76    O349      0.66567      .   S
    C124   O349      0.66567      .   S
    C7     O350      1.00396      .   S
    C137   O350      1.00396      .   S
    C6     O351      1.00396      .   S
    C136   O351      1.00396      .   S
    C188   O352      0.75540      .   S
    C104   O352      0.75540      .   S
    C189   O353      0.75539      .   S
    C105   O353      0.75539      .   S
    C64    O354      0.49592      .   S
    C192   O354      0.49592      .   S
    C65    O355      0.49592      .   S
    C193   O355      0.49592      .   S
    C104   O356      0.76238      .   S
    C172   O356      0.76238      .   S
    C104   O357      0.73746      .   S
    C190   O357      0.73746      .   S
    C105   O358      0.76238      .   S
    C173   O358      0.76238      .   S
    C105   O359      0.73746      .   S
    C191   O359      0.73746      .   S
    C38    O360      0.54235      .   S
    C80    O360      0.54235      .   S
    C39    O361      0.54235      .   S
    C81    O361      0.54235      .   S
    C136   O362      0.68165      .   S
    C80    O362      0.68165      .   S
    C136   O363      0.68471      .   S
    C82    O363      0.68471      .   S
    C137   O364      0.68165      .   S
    C81    O364      0.68165      .   S
    C137   O365      0.68470      .   S
    C83    O365      0.68470      .   S
    C126   O366      0.69545      .   S
    C124   O366      0.69545      .   S
    C126   O367      1.01525      .   S
    C12    O367      1.01525  1_655   S
    C127   O368      0.69546      .   S
    C125   O368      0.69546      .   S
    C127   O369      1.01530      .   S
    C13    O369      1.01530      .   S
    C192   O370      0.97573      .   S
    C0     O370      0.97573      .   S
    C193   O371      0.97573      .   S
    C1     O371      0.97573      .   S
    C124   O372      1.07112      .   S
    C8     O372      1.07112      .   S
    C125   O373      1.07112      .   S
    C9     O373      1.07112      .   S
    C81    O374      0.66134  1_545   S
    C133   O374      0.66134      .   S
    C80    O375      0.66133  1_545   S
    C132   O375      0.66133      .   S
    C17    O376      0.51469      .   S
    C115   O376      0.51469      .   S
    C16    O377      0.51469      .   S
    C114   O377      0.51469      .   S
    C33    O378      0.51189      .   S
    C139   O378      0.51189      .   S
    C32    O379      0.51173      .   S
    C138   O379      0.51173      .   S
    C19    O380      0.51006      .   S
    C115   O380      0.51006      .   S
    C18    O381      0.51006      .   S
    C114   O381      0.51006      .   S
    C138   O382      0.67949  1_455   S
    C83    O382      0.67949      .   S
    C138   O383      0.51695      .   S
    C34    O383      0.51695      .   S
    C139   O384      0.67951      .   S
    C82    O384      0.67951      .   S
    C139   O385      0.51658      .   S
    C35    O385      0.51658      .   S
    C82    O386      0.67557  1_545   S
    C134   O386      0.67557      .   S
    C83    O387      0.67557  1_545   S
    C135   O387      0.67557      .   S
    C173   O388      1.01092      .   S
    C1     O388      1.01092      .   S
    C172   O389      1.01092      .   S
    C0     O389      1.01092      .   S
    C115   O390      0.68084      .   S
    C70    O390      0.68084      .   S
    C114   O391      0.68078  1_455   S
    C71    O391      0.68078      .   S
    C133   O392      0.69802      .   S
    C135   O392      0.69802      .   S
    C133   O393      1.08746      .   S
    C9     O393      1.08746      .   S
    C132   O394      0.69802      .   S
    C134   O394      0.69802      .   S
    C132   O395      1.08746      .   S
    C8     O395      1.08746      .   S
    C71    O396      0.67639      .   S
    C111   O396      0.67639      .   S
    C71    O397      0.68333      .   S
    C113   O397      0.68333      .   S
    C70    O398      0.67639      .   S
    C110   O398      0.67639      .   S
    C70    O399      0.68255      .   S
    C112   O399      0.68255      .   S
    C135   O400      0.99267      .   S
    C12    O400      0.99267      .   S
    C134   O401      0.99267      .   S
    C13    O401      0.99267      .   S
    C0     O402      1.00302      .   S
    C112   O402      1.00302      .   S
    C0     O403      1.00437      .   S
    C152   O403      1.00437      .   S
    C1     O404      1.00296      .   S
    C113   O404      1.00296      .   S
    C1     O405      1.00437      .   S
    C153   O405      1.00437      .   S
    C111   O406      1.01518      .   S
    C12    O406      1.01518      .   S
    C111   O407      0.69537      .   S
    C109   O407      0.69537      .   S
    C110   O408      1.01518      .   S
    C13    O408      1.01518      .   S
    C110   O409      0.69537      .   S
    C108   O409      0.69537      .   S
    C112   O410      0.68405      .   S
    C68    O410      0.68405      .   S
    C113   O411      0.68318      .   S
    C69    O411      0.68318      .   S
    C13    O412      0.99243      .   S
    C119   O412      0.99243      .   S
    C12    O413      0.99240  1_655   S
    C118   O413      0.99240      .   S
    C68    O414      0.66005      .   S
    C108   O414      0.66005      .   S
    C68    O415      0.54191      .   S
    C24    O415      0.54191      .   S
    C69    O416      0.66005      .   S
    C109   O416      0.66005      .   S
    C69    O417      0.54194      .   S
    C25    O417      0.54194      .   S
    C108   O418      1.07116      .   S
    C8     O418      1.07116      .   S
    C109   O419      1.07116      .   S
    C9     O419      1.07116      .   S
    C8     O420      1.09380      .   S
    C178   O420      1.09380      .   S
    C8     O421      1.08785      .   S
    C116   O421      1.08785      .   S
    C8     O422      1.09316      .   S
    C174   O422      1.09316      .   S
    C9     O423      1.09381      .   S
    C179   O423      1.09381      .   S
    C9     O424      1.08785      .   S
    C117   O424      1.08785      .   S
    C9     O425      1.09320      .   S
    C175   O425      1.09320      .   S
    C45    O426      0.51178      .   S
    C155   O426      0.51178      .   S
    C44    O427      0.51178      .   S
    C154   O427      0.51178      .   S
    C178   O428      0.63324  1_565   S
    C102   O428      0.63324      .   S
    C179   O429      0.63363  1_565   S
    C103   O429      0.63363      .   S
    C153   O430      0.68444      .   S
    C91    O430      0.68444      .   S
    C153   O431      0.68146      .   S
    C89    O431      0.68146      .   S
    C152   O432      0.68444      .   S
    C90    O432      0.68444      .   S
    C152   O433      0.68146      .   S
    C88    O433      0.68146      .   S
    C116   O434      0.69813      .   S
    C118   O434      0.69813      .   S
    C117   O435      0.69813      .   S
    C119   O435      0.69813      .   S
    C155   O436      0.51667      .   S
    C47    O436      0.51667      .   S
    C155   O437      0.67967      .   S
    C90    O437      0.67967      .   S
    C154   O438      0.51668      .   S
    C46    O438      0.51668      .   S
    C154   O439      0.67960  1_455   S
    C91    O439      0.67960      .   S
    C51    O440      0.54235      .   S
    C89    O440      0.54235      .   S
    C50    O441      0.54234      .   S
    C88    O441      0.54234      .   S
    C192   O442      0.97582      .   S
    C6     O442      0.97582      .   S
    C193   O443      0.97582      .   S
    C7     O443      0.97582      .   S
    C198   O444      0.97608      .   S
    C4     O444      0.97608      .   S
    C199   O445      0.97608      .   S
    C5     O445      0.97608      .   S
