# CIF file generated by openbabel 2.4.90, see http://openbabel.sf.net
data_I
_chemical_name_common ''
_cell_length_a 14.864
_cell_length_b 13.096
_cell_length_c 13.1
_cell_angle_alpha 92.409
_cell_angle_beta 95.218
_cell_angle_gamma 84.857
_space_group_name_H-M_alt 'P 1'
_space_group_name_Hall 'P 1'
loop_
    _symmetry_equiv_pos_as_xyz
    x,y,z
loop_
    _atom_site_label
    _atom_site_type_symbol
    _atom_site_fract_x
    _atom_site_fract_y
    _atom_site_fract_z
    _atom_site_occupancy
    Zr0     Zr   0.35946   0.38637   0.79091   1.000
    Zr1     Zr   0.85946   0.38637   0.79091   1.000
    Zr2     Zr   0.14053   0.79082   0.38645   1.000
    Zr3     Zr   0.64053   0.79082   0.38645   1.000
    Zr4     Zr   0.14055   0.61363   0.20900   1.000
    Zr5     Zr   0.64056   0.61363   0.20900   1.000
    Zr6     Zr   0.35948   0.20918   0.61354   1.000
    Zr7     Zr   0.85949   0.20918   0.61354   1.000
    Zr8     Zr   0.24998   0.84323   0.84327   1.000
    Zr9     Zr   0.74998   0.84323   0.84327   1.000
    Zr10    Zr   0.25003   0.15677   0.15670   1.000
    Zr11    Zr   0.75004   0.15677   0.15670   1.000
    Zr12    Zr   0.99995   0.81411   0.81402   1.000
    Zr13    Zr   0.49995   0.81411   0.81402   1.000
    Zr14    Zr   0.00000   0.18589   0.18597   1.000
    Zr15    Zr   0.50006   0.18589   0.18597   1.000
    Zr16    Zr   0.04137   0.48714   0.72027   1.000
    Zr17    Zr   0.54138   0.48714   0.72027   1.000
    Zr18    Zr   0.07072   0.61029   0.73643   1.000
    Zr19    Zr   0.57072   0.61029   0.73643   1.000
    Zr20    Zr   0.46492   0.72770   0.13424   1.000
    Zr21    Zr   0.96492   0.72770   0.13424   1.000
    Zr22    Zr   0.42278   0.79700   0.03108   1.000
    Zr23    Zr   0.92279   0.79700   0.03108   1.000
    Zr24    Zr   0.24241   0.58812   0.83700   1.000
    Zr25    Zr   0.74241   0.58812   0.83702   1.000
    Zr26    Zr   0.27030   0.68859   0.04452   1.000
    Zr27    Zr   0.77030   0.68859   0.04452   1.000
    Zr28    Zr   0.45844   0.72014   0.48696   1.000
    Zr29    Zr   0.95845   0.72014   0.48696   1.000
    Zr30    Zr   0.42893   0.73648   0.60991   1.000
    Zr31    Zr   0.92893   0.73648   0.60991   1.000
    Zr32    Zr   0.03568   0.13353   0.72635   1.000
    Zr33    Zr   0.53569   0.13353   0.72630   1.000
    Zr34    Zr   0.07718   0.03065   0.79626   1.000
    Zr35    Zr   0.57719   0.03065   0.79626   1.000
    Zr36    Zr   0.25736   0.83724   0.58834   1.000
    Zr37    Zr   0.75736   0.83724   0.58834   1.000
    Zr38    Zr   0.22939   0.04496   0.68916   1.000
    Zr39    Zr   0.72939   0.04496   0.68916   1.000
    Zr40    Zr   0.45863   0.51287   0.27971   1.000
    Zr41    Zr   0.95864   0.51287   0.27971   1.000
    Zr42    Zr   0.42929   0.38972   0.26354   1.000
    Zr43    Zr   0.92929   0.38972   0.26354   1.000
    Zr44    Zr   0.03509   0.27230   0.86575   1.000
    Zr45    Zr   0.53509   0.27230   0.86575   1.000
    Zr46    Zr   0.07723   0.20301   0.96891   1.000
    Zr47    Zr   0.57723   0.20301   0.96891   1.000
    Zr48    Zr   0.25760   0.41189   0.16294   1.000
    Zr49    Zr   0.75760   0.41189   0.16294   1.000
    Zr50    Zr   0.22971   0.31141   0.95547   1.000
    Zr51    Zr   0.72971   0.31141   0.95547   1.000
    Zr52    Zr   0.04157   0.27988   0.51303   1.000
    Zr53    Zr   0.54157   0.27988   0.51303   1.000
    Zr54    Zr   0.07108   0.26354   0.39007   1.000
    Zr55    Zr   0.57108   0.26354   0.39007   1.000
    Zr56    Zr   0.46432   0.86647   0.27363   1.000
    Zr57    Zr   0.96433   0.86647   0.27363   1.000
    Zr58    Zr   0.42282   0.96936   0.20373   1.000
    Zr59    Zr   0.92283   0.96936   0.20370   1.000
    Zr60    Zr   0.24265   0.16278   0.41165   1.000
    Zr61    Zr   0.74265   0.16278   0.41165   1.000
    Zr62    Zr   0.27062   0.95504   0.31082   1.000
    Zr63    Zr   0.77062   0.95504   0.31082   1.000
    Zr64    Zr   0.48613   0.32598   0.67430   1.000
    Zr65    Zr   0.98613   0.32598   0.67430   1.000
    Zr66    Zr   0.01388   0.67401   0.32570   1.000
    Zr67    Zr   0.51389   0.67401   0.32570   1.000
    Zr68    Zr   0.30877   0.60780   0.82056   1.000
    Zr69    Zr   0.80877   0.60780   0.82056   1.000
    Zr70    Zr   0.44667   0.59396   0.78028   1.000
    Zr71    Zr   0.94667   0.59396   0.78028   1.000
    Zr72    Zr   0.19940   0.71126   0.02200   1.000
    Zr73    Zr   0.69941   0.71126   0.02200   1.000
    Zr74    Zr   0.05464   0.73902   0.02858   1.000
    Zr75    Zr   0.55465   0.73902   0.02858   1.000
    Zr76    Zr   0.19097   0.82076   0.60700   1.000
    Zr77    Zr   0.69097   0.82076   0.60700   1.000
    Zr78    Zr   0.05302   0.78044   0.59385   1.000
    Zr79    Zr   0.55303   0.78044   0.59385   1.000
    Zr80    Zr   0.30032   0.02294   0.71144   1.000
    Zr81    Zr   0.80033   0.02294   0.71144   1.000
    Zr82    Zr   0.44521   0.02851   0.73856   1.000
    Zr83    Zr   0.94522   0.02851   0.73856   1.000
    Zr84    Zr   0.19124   0.39220   0.17940   1.000
    Zr85    Zr   0.69124   0.39220   0.17940   1.000
    Zr86    Zr   0.05334   0.40604   0.21960   1.000
    Zr87    Zr   0.55334   0.40604   0.21969   1.000
    Zr88    Zr   0.30060   0.28874   0.97729   1.000
    Zr89    Zr   0.80061   0.28874   0.97729   1.000
    Zr90    Zr   0.44537   0.26099   0.97141   1.000
    Zr91    Zr   0.94537   0.26099   0.97141   1.000
    Zr92    Zr   0.30904   0.17926   0.39209   1.000
    Zr93    Zr   0.80904   0.17926   0.39209   1.000
    Zr94    Zr   0.44698   0.21958   0.40613   1.000
    Zr95    Zr   0.94699   0.21958   0.40613   1.000
    Zr96    Zr   0.19969   0.97706   0.28854   1.000
    Zr97    Zr   0.69969   0.97706   0.28854   1.000
    Zr98    Zr   0.05479   0.97149   0.26142   1.000
    Zr99    Zr   0.55480   0.97149   0.26140   1.000
    Zr100   Zr   0.29535   0.97418   0.02582   1.000
    Zr101   Zr   0.79536   0.97419   0.02581   1.000
    Zr102   Zr   0.20465   0.02581   0.97410   1.000
    Zr103   Zr   0.70465   0.02581   0.97418   1.000
    Zr104   Zr   0.33225   0.70266   0.82060   1.000
    Zr105   Zr   0.83226   0.70266   0.82060   1.000
    Zr106   Zr   0.42086   0.69505   0.79309   1.000
    Zr107   Zr   0.92086   0.69505   0.79309   1.000
    Zr108   Zr   0.37720   0.53661   0.79600   1.000
    Zr109   Zr   0.87720   0.53661   0.79649   1.000
    Zr110   Zr   0.03169   0.55664   0.75915   1.000
    Zr111   Zr   0.53169   0.55664   0.75915   1.000
    Zr112   Zr   0.16997   0.76268   0.93971   1.000
    Zr113   Zr   0.66997   0.76268   0.93971   1.000
    Zr114   Zr   0.07626   0.78133   0.94273   1.000
    Zr115   Zr   0.57626   0.78133   0.94273   1.000
    Zr116   Zr   0.13086   0.69302   0.08005   1.000
    Zr117   Zr   0.63087   0.69302   0.08005   1.000
    Zr118   Zr   0.46931   0.73878   0.05803   1.000
    Zr119   Zr   0.96931   0.73878   0.05803   1.000
    Zr120   Zr   0.16751   0.82075   0.70269   1.000
    Zr121   Zr   0.66752   0.82075   0.70269   1.000
    Zr122   Zr   0.07887   0.79317   0.69496   1.000
    Zr123   Zr   0.57887   0.79317   0.69496   1.000
    Zr124   Zr   0.12249   0.79674   0.53662   1.000
    Zr125   Zr   0.62250   0.79674   0.53662   1.000
    Zr126   Zr   0.46798   0.75926   0.55636   1.000
    Zr127   Zr   0.96798   0.75926   0.55636   1.000
    Zr128   Zr   0.32979   0.93991   0.76281   1.000
    Zr129   Zr   0.82979   0.93991   0.76281   1.000
    Zr130   Zr   0.42356   0.94272   0.78104   1.000
    Zr131   Zr   0.92356   0.94272   0.78104   1.000
    Zr132   Zr   0.36893   0.08015   0.69280   1.000
    Zr133   Zr   0.86894   0.08015   0.69280   1.000
    Zr134   Zr   0.03068   0.05751   0.73790   1.000
    Zr135   Zr   0.53069   0.05751   0.73798   1.000
    Zr136   Zr   0.16775   0.29735   0.17933   1.000
    Zr137   Zr   0.66776   0.29735   0.17933   1.000
    Zr138   Zr   0.07915   0.30495   0.20688   1.000
    Zr139   Zr   0.57915   0.30495   0.20688   1.000
    Zr140   Zr   0.12280   0.46339   0.20347   1.000
    Zr141   Zr   0.62281   0.46339   0.20347   1.000
    Zr142   Zr   0.46832   0.44337   0.24082   1.000
    Zr143   Zr   0.96832   0.44337   0.24082   1.000
    Zr144   Zr   0.33004   0.23732   0.06027   1.000
    Zr145   Zr   0.83005   0.23732   0.06027   1.000
    Zr146   Zr   0.42375   0.21868   0.05726   1.000
    Zr147   Zr   0.92375   0.21868   0.05726   1.000
    Zr148   Zr   0.36915   0.30699   0.91994   1.000
    Zr149   Zr   0.86915   0.30699   0.91994   1.000
    Zr150   Zr   0.03070   0.26123   0.94196   1.000
    Zr151   Zr   0.53071   0.26123   0.94196   1.000
    Zr152   Zr   0.33249   0.17927   0.29729   1.000
    Zr153   Zr   0.83250   0.17927   0.29729   1.000
    Zr154   Zr   0.42113   0.20685   0.30500   1.000
    Zr155   Zr   0.92114   0.20685   0.30500   1.000
    Zr156   Zr   0.37751   0.20328   0.46337   1.000
    Zr157   Zr   0.87752   0.20328   0.46337   1.000
    Zr158   Zr   0.03203   0.24076   0.44362   1.000
    Zr159   Zr   0.53203   0.24076   0.44362   1.000
    Zr160   Zr   0.17022   0.06009   0.23718   1.000
    Zr161   Zr   0.67022   0.06009   0.23718   1.000
    Zr162   Zr   0.07645   0.05729   0.21895   1.000
    Zr163   Zr   0.57646   0.05729   0.21895   1.000
    Zr164   Zr   0.13108   0.91985   0.30714   1.000
    Zr165   Zr   0.63108   0.91985   0.30714   1.000
    Zr166   Zr   0.46933   0.94249   0.26201   1.000
    Zr167   Zr   0.96933   0.94249   0.26201   1.000
    Zr168   Zr   0.32882   0.89287   0.98271   1.000
    Zr169   Zr   0.82883   0.89288   0.98271   1.000
    Zr170   Zr   0.17112   0.98268   0.89284   1.000
    Zr171   Zr   0.67112   0.98268   0.89285   1.000
    Zr172   Zr   0.17119   0.10713   0.01728   1.000
    Zr173   Zr   0.67118   0.10712   0.01720   1.000
    Zr174   Zr   0.32888   0.01731   0.10715   1.000
    Zr175   Zr   0.82890   0.01732   0.10714   1.000
    Zr176   Zr   0.43395   0.29795   0.70220   1.000
    Zr177   Zr   0.93395   0.29795   0.70220   1.000
    Zr178   Zr   0.06606   0.70204   0.29780   1.000
    Zr179   Zr   0.56607   0.70204   0.29780   1.000
    O180    O    0.71061   0.13195   0.08695   1.000
    O181    O    0.68792   0.06647   0.99569   1.000
    O182    O    0.21061   0.13195   0.08699   1.000
    O183    O    0.18792   0.06647   0.99569   1.000
    O184    O    0.23485   0.69993   0.03326   1.000
    O185    O    0.16513   0.70214   0.05102   1.000
    O186    O    0.18469   0.73697   0.98085   1.000
    O187    O    0.73486   0.69993   0.03326   1.000
    O188    O    0.66514   0.70214   0.05102   1.000
    O189    O    0.68469   0.73697   0.98085   1.000
    O190    O    0.81213   0.99575   0.06647   1.000
    O191    O    0.75001   0.00000   0.99999   1.000
    O192    O    0.81210   0.93353   0.00426   1.000
    O193    O    0.31212   0.99575   0.06648   1.000
    O194    O    0.25000   0.00000   0.99996   1.000
    O195    O    0.31209   0.93353   0.00426   1.000
    O196    O    0.51198   0.73890   0.04330   1.000
    O197    O    0.59276   0.71602   0.05431   1.000
    O198    O    0.56546   0.76017   0.98565   1.000
    O199    O    0.01198   0.73890   0.04330   1.000
    O200    O    0.09275   0.71602   0.05431   1.000
    O201    O    0.06545   0.76017   0.98565   1.000
    O202    O    0.44604   0.76789   0.04455   1.000
    O203    O    0.94605   0.76789   0.04455   1.000
    O204    O    0.37690   0.22800   0.05876   1.000
    O205    O    0.46191   0.20228   0.12161   1.000
    O206    O    0.43456   0.23983   0.01433   1.000
    O207    O    0.87690   0.22800   0.05876   1.000
    O208    O    0.96188   0.20228   0.12161   1.000
    O209    O    0.93456   0.23983   0.01433   1.000
    O210    O    0.96712   0.73324   0.09613   1.000
    O211    O    0.46711   0.73324   0.09613   1.000
    O212    O    0.79004   0.19705   0.10848   1.000
    O213    O    0.81533   0.26303   0.01878   1.000
    O214    O    0.29004   0.19705   0.10848   1.000
    O215    O    0.31532   0.26303   0.01878   1.000
    O216    O    0.13571   0.65332   0.14452   1.000
    O217    O    0.63571   0.65332   0.14452   1.000
    O218    O    0.78947   0.08705   0.13192   1.000
    O219    O    0.28946   0.08704   0.13192   1.000
    O220    O    0.20889   0.22706   0.16801   1.000
    O221    O    0.21013   0.10843   0.19694   1.000
    O222    O    0.29126   0.16802   0.22699   1.000
    O223    O    0.70890   0.22706   0.16801   1.000
    O224    O    0.71013   0.10843   0.19694   1.000
    O225    O    0.79127   0.16802   0.22699   1.000
    O226    O    0.72442   0.40205   0.17117   1.000
    O227    O    0.22442   0.40205   0.17117   1.000
    O228    O    0.17950   0.34477   0.17936   1.000
    O229    O    0.12345   0.30115   0.19310   1.000
    O230    O    0.67950   0.34477   0.17936   1.000
    O231    O    0.62345   0.30115   0.19310   1.000
    O232    O    0.65703   0.42780   0.19143   1.000
    O233    O    0.15702   0.42780   0.19143   1.000
    O234    O    0.03957   0.24542   0.19642   1.000
    O235    O    0.03822   0.12159   0.20246   1.000
    O236    O    0.96057   0.19637   0.24548   1.000
    O237    O    0.53961   0.24542   0.19642   1.000
    O238    O    0.53826   0.12159   0.20246   1.000
    O239    O    0.46060   0.19637   0.24548   1.000
    O240    O    0.13168   0.53851   0.20623   1.000
    O241    O    0.08807   0.43472   0.21153   1.000
    O242    O    0.63168   0.53851   0.20623   1.000
    O243    O    0.58808   0.43472   0.21158   1.000
    O244    O    0.94608   0.95592   0.23285   1.000
    O245    O    0.44608   0.95592   0.23287   1.000
    O246    O    0.56625   0.35550   0.21328   1.000
    O247    O    0.06624   0.35550   0.21324   1.000
    O248    O    0.62334   0.05869   0.22807   1.000
    O249    O    0.56563   0.01439   0.24017   1.000
    O250    O    0.12333   0.05869   0.22807   1.000
    O251    O    0.06562   0.01439   0.24018   1.000
    O252    O    0.01083   0.42470   0.23021   1.000
    O253    O    0.51083   0.42470   0.23025   1.000
    O254    O    0.18495   0.01858   0.26286   1.000
    O255    O    0.68496   0.01858   0.26286   1.000
    O256    O    0.44880   0.41655   0.25218   1.000
    O257    O    0.46347   0.47812   0.26026   1.000
    O258    O    0.94881   0.41655   0.25218   1.000
    O259    O    0.96348   0.47812   0.26026   1.000
    O260    O    0.51206   0.95699   0.26171   1.000
    O261    O    0.59294   0.94567   0.28427   1.000
    O262    O    0.01206   0.95699   0.26171   1.000
    O263    O    0.09294   0.94567   0.28428   1.000
    O264    O    0.96683   0.90448   0.26782   1.000
    O265    O    0.46683   0.90448   0.26782   1.000
    O266    O    0.66539   0.94846   0.29784   1.000
    O267    O    0.73516   0.96605   0.29968   1.000
    O268    O    0.16538   0.94846   0.29784   1.000
    O269    O    0.23515   0.96605   0.29968   1.000
    O270    O    0.87682   0.19306   0.30114   1.000
    O271    O    0.82077   0.17926   0.34469   1.000
    O272    O    0.37681   0.19306   0.30114   1.000
    O273    O    0.32077   0.17926   0.34469   1.000
    O274    O    0.53998   0.68803   0.31175   1.000
    O275    O    0.60330   0.74643   0.34212   1.000
    O276    O    0.03997   0.68803   0.31175   1.000
    O277    O    0.10329   0.74643   0.34212   1.000
    O278    O    0.93406   0.21321   0.35556   1.000
    O279    O    0.43406   0.21321   0.35556   1.000
    O280    O    0.13580   0.85534   0.34679   1.000
    O281    O    0.63581   0.85534   0.34679   1.000
    O282    O    0.13151   0.79378   0.46153   1.000
    O283    O    0.63151   0.79378   0.46153   1.000
    O284    O    0.05155   0.25215   0.41684   1.000
    O285    O    0.55156   0.25215   0.41684   1.000
    O286    O    0.27584   0.17102   0.40187   1.000
    O287    O    0.34327   0.19127   0.42773   1.000
    O288    O    0.77585   0.17102   0.40187   1.000
    O289    O    0.84328   0.19127   0.42773   1.000
    O290    O    0.48951   0.23017   0.42487   1.000
    O291    O    0.41225   0.21143   0.43475   1.000
    O292    O    0.98951   0.23017   0.42487   1.000
    O293    O    0.91225   0.21143   0.43475   1.000
    O294    O    0.03680   0.26032   0.47832   1.000
    O295    O    0.53680   0.26032   0.47832   1.000
    O296    O    0.86850   0.20623   0.53845   1.000
    O297    O    0.36850   0.20623   0.53845   1.000
    O298    O    0.96322   0.73970   0.52166   1.000
    O299    O    0.46321   0.73970   0.52166   1.000
    O300    O    0.58776   0.78859   0.56523   1.000
    O301    O    0.65674   0.80875   0.57181   1.000
    O302    O    0.08776   0.78859   0.56523   1.000
    O303    O    0.15673   0.80875   0.57181   1.000
    O304    O    0.01050   0.76985   0.57510   1.000
    O305    O    0.94846   0.74787   0.58313   1.000
    O306    O    0.51050   0.76985   0.57510   1.000
    O307    O    0.44845   0.74787   0.58313   1.000
    O308    O    0.72417   0.82900   0.59767   1.000
    O309    O    0.22416   0.82900   0.59767   1.000
    O310    O    0.56595   0.78681   0.64440   1.000
    O311    O    0.06595   0.78681   0.64440   1.000
    O312    O    0.67924   0.82076   0.65484   1.000
    O313    O    0.17924   0.82076   0.65484   1.000
    O314    O    0.86421   0.14466   0.65317   1.000
    O315    O    0.36421   0.14466   0.65317   1.000
    O316    O    0.46004   0.31196   0.68825   1.000
    O317    O    0.96004   0.31196   0.68825   1.000
    O318    O    0.26486   0.03395   0.70030   1.000
    O319    O    0.76486   0.03395   0.70030   1.000
    O320    O    0.33463   0.05154   0.70212   1.000
    O321    O    0.40707   0.05433   0.71568   1.000
    O322    O    0.83463   0.05154   0.70212   1.000
    O323    O    0.90708   0.05433   0.71568   1.000
    O324    O    0.12319   0.80696   0.69882   1.000
    O325    O    0.03941   0.80364   0.75449   1.000
    O326    O    0.62319   0.80696   0.69882   1.000
    O327    O    0.53941   0.80364   0.75449   1.000
    O328    O    0.39670   0.34216   0.74655   1.000
    O329    O    0.89671   0.34216   0.74655   1.000
    O330    O    0.20874   0.83199   0.77298   1.000
    O331    O    0.70875   0.83199   0.77298   1.000
    O332    O    0.81506   0.98143   0.73712   1.000
    O333    O    0.31506   0.98142   0.73712   1.000
    O334    O    0.53654   0.52189   0.73971   1.000
    O335    O    0.03653   0.52189   0.73971   1.000
    O336    O    0.53319   0.09552   0.73214   1.000
    O337    O    0.03318   0.09552   0.73212   1.000
    O338    O    0.55121   0.58346   0.74779   1.000
    O339    O    0.05120   0.58346   0.74779   1.000
    O340    O    0.98795   0.04301   0.73823   1.000
    O341    O    0.05393   0.04408   0.76708   1.000
    O342    O    0.48795   0.04301   0.73827   1.000
    O343    O    0.55394   0.04408   0.76712   1.000
    O344    O    0.43439   0.98561   0.75980   1.000
    O345    O    0.93439   0.98561   0.75980   1.000
    O346    O    0.48918   0.57530   0.76971   1.000
    O347    O    0.98918   0.57530   0.76971   1.000
    O348    O    0.87668   0.94131   0.77192   1.000
    O349    O    0.78989   0.89157   0.80304   1.000
    O350    O    0.37667   0.94131   0.77192   1.000
    O351    O    0.28988   0.89157   0.80304   1.000
    O352    O    0.93377   0.64451   0.78668   1.000
    O353    O    0.91194   0.56529   0.78838   1.000
    O354    O    0.43376   0.64451   0.78668   1.000
    O355    O    0.41193   0.56529   0.78814   1.000
    O356    O    0.96176   0.87841   0.79753   1.000
    O357    O    0.46175   0.87841   0.79753   1.000
    O358    O    0.36833   0.46149   0.79345   1.000
    O359    O    0.36430   0.34668   0.85542   1.000
    O360    O    0.86833   0.46149   0.79370   1.000
    O361    O    0.86431   0.34668   0.85542   1.000
    O362    O    0.96041   0.75458   0.80355   1.000
    O363    O    0.87656   0.69886   0.80684   1.000
    O364    O    0.46040   0.75458   0.80355   1.000
    O365    O    0.37656   0.69886   0.80684   1.000
    O366    O    0.34298   0.57221   0.80828   1.000
    O367    O    0.84299   0.57221   0.80852   1.000
    O368    O    0.53811   0.79772   0.87837   1.000
    O369    O    0.03811   0.79772   0.87837   1.000
    O370    O    0.32051   0.65523   0.82058   1.000
    O371    O    0.27559   0.59796   0.82878   1.000
    O372    O    0.82051   0.65523   0.82058   1.000
    O373    O    0.77559   0.59796   0.82879   1.000
    O374    O    0.29111   0.77295   0.83193   1.000
    O375    O    0.79112   0.77295   0.83193   1.000
    O376    O    0.21055   0.91296   0.86805   1.000
    O377    O    0.20997   0.80296   0.89149   1.000
    O378    O    0.28940   0.86805   0.91299   1.000
    O379    O    0.71055   0.91296   0.86806   1.000
    O380    O    0.70998   0.80296   0.89149   1.000
    O381    O    0.78941   0.86806   0.91299   1.000
    O382    O    0.53290   0.26677   0.90385   1.000
    O383    O    0.03289   0.26677   0.90385   1.000
    O384    O    0.18788   0.00425   0.93347   1.000
    O385    O    0.68788   0.00424   0.93351   1.000
    O386    O    0.90726   0.28399   0.94567   1.000
    O387    O    0.83488   0.29787   0.94861   1.000
    O388    O    0.40726   0.28399   0.94567   1.000
    O389    O    0.33488   0.29787   0.94861   1.000
    O390    O    0.12311   0.77200   0.94122   1.000
    O391    O    0.62312   0.77200   0.94122   1.000
    O392    O    0.55397   0.23212   0.95543   1.000
    O393    O    0.48804   0.26111   0.95669   1.000
    O394    O    0.05396   0.23212   0.95543   1.000
    O395    O    0.98804   0.26111   0.95669   1.000
    O396    O    0.76516   0.30008   0.96638   1.000
    O397    O    0.26516   0.30008   0.96638   1.000
    O398    O    0.39672   0.25356   0.65787   1.000
    O399    O    0.89672   0.25356   0.65787   1.000
    O400    O    0.10331   0.65784   0.25340   1.000
    O401    O    0.60331   0.65784   0.25340   1.000
    N402    N    0.67288   0.31377   0.68605   1.000
    O403    O    0.73306   0.27456   0.64727   1.000
    O404    O    0.73282   0.35233   0.72629   1.000
    N405    N    0.32713   0.68622   0.31393   1.000
    O406    O    0.26696   0.72543   0.35270   1.000
    O407    O    0.26719   0.64767   0.27367   1.000
    N408    N    0.17288   0.31377   0.68605   1.000
    O409    O    0.23305   0.27456   0.64727   1.000
    O410    O    0.23282   0.35233   0.72629   1.000
    N411    N    0.82714   0.68622   0.31393   1.000
    O412    O    0.76696   0.72543   0.35270   1.000
    O413    O    0.76720   0.64767   0.27367   1.000
loop_
    _geom_bond_atom_site_label_1
    _geom_bond_atom_site_label_2
    _geom_bond_distance
    _geom_bond_site_symmetry_2
    _ccdc_geom_bond_type
    Zr173  O180      1.09354      .   S
    Zr11   O180      1.09354      .   S
    Zr173  O181      0.63334  1_554   S
    Zr103  O181      0.63334      .   S
    Zr172  O182      1.09310      .   S
    Zr10   O182      1.09310      .   S
    Zr172  O183      0.63382  1_554   S
    Zr102  O183      0.63382      .   S
    Zr72   O184      0.54322      .   S
    Zr26   O184      0.54322      .   S
    Zr72   O185      0.68433      .   S
    Zr116  O185      0.68433      .   S
    Zr72   O186      0.65752  1_554   S
    Zr112  O186      0.65752      .   S
    Zr73   O187      0.54322      .   S
    Zr27   O187      0.54322      .   S
    Zr73   O188      0.68433      .   S
    Zr117  O188      0.68433      .   S
    Zr73   O189      0.65752  1_554   S
    Zr113  O189      0.65752      .   S
    Zr101  O190      0.63362      .   S
    Zr175  O190      0.63362  1_545   S
    Zr101  O191      0.78130  1_564   S
    Zr103  O191      0.78130      .   S
    Zr101  O192      0.63357      .   S
    Zr169  O192      0.63357  1_556   S
    Zr100  O193      0.63360      .   S
    Zr174  O193      0.63360  1_545   S
    Zr100  O194      0.78149  1_564   S
    Zr102  O194      0.78149      .   S
    Zr100  O195      0.63362      .   S
    Zr168  O195      0.63362  1_556   S
    Zr75   O196      0.67968      .   S
    Zr118  O196      0.67968      .   S
    Zr75   O197      0.68443      .   S
    Zr117  O197      0.68443      .   S
    Zr75   O198      0.67546  1_554   S
    Zr115  O198      0.67546      .   S
    Zr74   O199      0.67960      .   S
    Zr119  O199      0.67960  1_655   S
    Zr74   O200      0.68444      .   S
    Zr116  O200      0.68444      .   S
    Zr74   O201      0.67547  1_554   S
    Zr114  O201      0.67547      .   S
    Zr22   O202      0.51667      .   S
    Zr118  O202      0.51667      .   S
    Zr23   O203      0.51667      .   S
    Zr119  O203      0.51667      .   S
    Zr146  O204      0.69812      .   S
    Zr144  O204      0.69812      .   S
    Zr146  O205      0.99243      .   S
    Zr15   O205      0.99243      .   S
    Zr146  O206      0.67548      .   S
    Zr90   O206      0.67548  1_556   S
    Zr147  O207      0.69812      .   S
    Zr145  O207      0.69812      .   S
    Zr147  O208      0.99219      .   S
    Zr14   O208      0.99219  1_455   S
    Zr147  O209      0.67549      .   S
    Zr91   O209      0.67549  1_556   S
    Zr119  O210      0.51179      .   S
    Zr21   O210      0.51179      .   S
    Zr118  O211      0.51179      .   S
    Zr20   O211      0.51179      .   S
    Zr145  O212      1.08778      .   S
    Zr11   O212      1.08778      .   S
    Zr145  O213      0.66120      .   S
    Zr89   O213      0.66120  1_556   S
    Zr144  O214      1.08778      .   S
    Zr10   O214      1.08778      .   S
    Zr144  O215      0.66121      .   S
    Zr88   O215      0.66121  1_556   S
    Zr116  O216      1.00396      .   S
    Zr4    O216      1.00396      .   S
    Zr117  O217      1.00396      .   S
    Zr5    O217      1.00396      .   S
    Zr175  O218      1.09382      .   S
    Zr11   O218      1.09382      .   S
    Zr174  O219      1.09381      .   S
    Zr10   O219      1.09381      .   S
    Zr10   O220      1.07111      .   S
    Zr136  O220      1.07111      .   S
    Zr10   O221      1.08755      .   S
    Zr160  O221      1.08755      .   S
    Zr10   O222      1.07117      .   S
    Zr152  O222      1.07117      .   S
    Zr11   O223      1.07111      .   S
    Zr137  O223      1.07111      .   S
    Zr11   O224      1.08755      .   S
    Zr161  O224      1.08755      .   S
    Zr11   O225      1.07117      .   S
    Zr153  O225      1.07117      .   S
    Zr49   O226      0.54194      .   S
    Zr85   O226      0.54194      .   S
    Zr48   O227      0.54194      .   S
    Zr84   O227      0.54194      .   S
    Zr136  O228      0.66004      .   S
    Zr84   O228      0.66004      .   S
    Zr136  O229      0.69546      .   S
    Zr138  O229      0.69546      .   S
    Zr137  O230      0.66004      .   S
    Zr85   O230      0.66004      .   S
    Zr137  O231      0.69545      .   S
    Zr139  O231      0.69545      .   S
    Zr85   O232      0.68317      .   S
    Zr141  O232      0.68317      .   S
    Zr84   O233      0.68317      .   S
    Zr140  O233      0.68317      .   S
    Zr14   O234      1.01546      .   S
    Zr138  O234      1.01546      .   S
    Zr14   O235      0.99286      .   S
    Zr162  O235      0.99286      .   S
    Zr14   O236      1.01483  1_455   S
    Zr155  O236      1.01483      .   S
    Zr15   O237      1.01518      .   S
    Zr139  O237      1.01518      .   S
    Zr15   O238      0.99265      .   S
    Zr163  O238      0.99265      .   S
    Zr15   O239      1.01516      .   S
    Zr154  O239      1.01516      .   S
    Zr140  O240      1.00294      .   S
    Zr4    O240      1.00294      .   S
    Zr140  O241      0.68319      .   S
    Zr86   O241      0.68319      .   S
    Zr141  O242      1.00294      .   S
    Zr5    O242      1.00294      .   S
    Zr141  O243      0.68334      .   S
    Zr87   O243      0.68334      .   S
    Zr59   O244      0.51672      .   S
    Zr167  O244      0.51672      .   S
    Zr58   O245      0.51659      .   S
    Zr166  O245      0.51659      .   S
    Zr139  O246      0.67639      .   S
    Zr87   O246      0.67639      .   S
    Zr138  O247      0.67633      .   S
    Zr86   O247      0.67633      .   S
    Zr163  O248      0.69801      .   S
    Zr161  O248      0.69801      .   S
    Zr163  O249      0.67550      .   S
    Zr99   O249      0.67550  1_565   S
    Zr162  O250      0.69802      .   S
    Zr160  O250      0.69802      .   S
    Zr162  O251      0.67556      .   S
    Zr98   O251      0.67556  1_565   S
    Zr86   O252      0.68094      .   S
    Zr143  O252      0.68094  1_655   S
    Zr87   O253      0.68085      .   S
    Zr142  O253      0.68085      .   S
    Zr160  O254      0.66132      .   S
    Zr96   O254      0.66132  1_565   S
    Zr161  O255      0.66132      .   S
    Zr97   O255      0.66132  1_565   S
    Zr142  O256      0.51006      .   S
    Zr42   O256      0.51006      .   S
    Zr142  O257      0.51470      .   S
    Zr40   O257      0.51470      .   S
    Zr143  O258      0.51006      .   S
    Zr43   O258      0.51006      .   S
    Zr143  O259      0.51470      .   S
    Zr41   O259      0.51470      .   S
    Zr99   O260      0.67953      .   S
    Zr166  O260      0.67953      .   S
    Zr99   O261      0.68466      .   S
    Zr165  O261      0.68466      .   S
    Zr98   O262      0.67944      .   S
    Zr167  O262      0.67944  1_655   S
    Zr98   O263      0.68462      .   S
    Zr164  O263      0.68462      .   S
    Zr167  O264      0.51181      .   S
    Zr57   O264      0.51181      .   S
    Zr166  O265      0.51181      .   S
    Zr56   O265      0.51181      .   S
    Zr97   O266      0.68159      .   S
    Zr165  O266      0.68159      .   S
    Zr97   O267      0.54235      .   S
    Zr63   O267      0.54235      .   S
    Zr96   O268      0.68158      .   S
    Zr164  O268      0.68158      .   S
    Zr96   O269      0.54235      .   S
    Zr62   O269      0.54235      .   S
    Zr153  O270      0.69546      .   S
    Zr155  O270      0.69546      .   S
    Zr153  O271      0.66005      .   S
    Zr93   O271      0.66005      .   S
    Zr152  O272      0.69546      .   S
    Zr154  O272      0.69546      .   S
    Zr152  O273      0.66004      .   S
    Zr92   O273      0.66004      .   S
    Zr179  O274      0.49591      .   S
    Zr67   O274      0.49591      .   S
    Zr179  O275      0.97580      .   S
    Zr3    O275      0.97580      .   S
    Zr178  O276      0.49591      .   S
    Zr66   O276      0.49591      .   S
    Zr178  O277      0.97580      .   S
    Zr2    O277      0.97580      .   S
    Zr155  O278      0.67654      .   S
    Zr95   O278      0.67654      .   S
    Zr154  O279      0.67654      .   S
    Zr94   O279      0.67654      .   S
    Zr164  O280      1.00415      .   S
    Zr2    O280      1.00415      .   S
    Zr165  O281      1.00415      .   S
    Zr3    O281      1.00415      .   S
    Zr2    O282      1.00339      .   S
    Zr124  O282      1.00339      .   S
    Zr3    O283      1.00339      .   S
    Zr125  O283      1.00339      .   S
    Zr54   O284      0.51008      .   S
    Zr158  O284      0.51008      .   S
    Zr55   O285      0.51008      .   S
    Zr159  O285      0.51008      .   S
    Zr92   O286      0.54195      .   S
    Zr60   O286      0.54195      .   S
    Zr92   O287      0.68314      .   S
    Zr156  O287      0.68314      .   S
    Zr93   O288      0.54194      .   S
    Zr61   O288      0.54194      .   S
    Zr93   O289      0.68314      .   S
    Zr157  O289      0.68314      .   S
    Zr94   O290      0.68096      .   S
    Zr159  O290      0.68096      .   S
    Zr94   O291      0.68334      .   S
    Zr156  O291      0.68334      .   S
    Zr95   O292      0.68089      .   S
    Zr158  O292      0.68089  1_455   S
    Zr95   O293      0.68334      .   S
    Zr157  O293      0.68334      .   S
    Zr158  O294      0.51472      .   S
    Zr52   O294      0.51472      .   S
    Zr159  O295      0.51472      .   S
    Zr53   O295      0.51472      .   S
    Zr157  O296      1.00339      .   S
    Zr7    O296      1.00339      .   S
    Zr156  O297      1.00339      .   S
    Zr6    O297      1.00339      .   S
    Zr29   O298      0.51467      .   S
    Zr127  O298      0.51467      .   S
    Zr28   O299      0.51467      .   S
    Zr126  O299      0.51467      .   S
    Zr125  O300      0.68330      .   S
    Zr79   O300      0.68330      .   S
    Zr125  O301      0.67958      .   S
    Zr77   O301      0.67958      .   S
    Zr124  O302      0.68330      .   S
    Zr78   O302      0.68330      .   S
    Zr124  O303      0.67958      .   S
    Zr76   O303      0.67958      .   S
    Zr127  O304      0.68088  1_655   S
    Zr78   O304      0.68088      .   S
    Zr127  O305      0.51009      .   S
    Zr31   O305      0.51009      .   S
    Zr126  O306      0.68096      .   S
    Zr79   O306      0.68096      .   S
    Zr126  O307      0.51009      .   S
    Zr30   O307      0.51009      .   S
    Zr37   O308      0.54004      .   S
    Zr77   O308      0.54004      .   S
    Zr36   O309      0.54004      .   S
    Zr76   O309      0.54004      .   S
    Zr79   O310      0.67641      .   S
    Zr123  O310      0.67641      .   S
    Zr78   O311      0.67642      .   S
    Zr122  O311      0.67642      .   S
    Zr77   O312      0.66567      .   S
    Zr121  O312      0.66567      .   S
    Zr76   O313      0.66567      .   S
    Zr120  O313      0.66567      .   S
    Zr7    O314      1.00396      .   S
    Zr133  O314      1.00396      .   S
    Zr6    O315      1.00396      .   S
    Zr132  O315      1.00396      .   S
    Zr64   O316      0.49592      .   S
    Zr176  O316      0.49592      .   S
    Zr65   O317      0.49592      .   S
    Zr177  O317      0.49592      .   S
    Zr38   O318      0.54235      .   S
    Zr80   O318      0.54235      .   S
    Zr39   O319      0.54235      .   S
    Zr81   O319      0.54235      .   S
    Zr132  O320      0.68165      .   S
    Zr80   O320      0.68165      .   S
    Zr132  O321      0.68471      .   S
    Zr82   O321      0.68471      .   S
    Zr133  O322      0.68165      .   S
    Zr81   O322      0.68165      .   S
    Zr133  O323      0.68470      .   S
    Zr83   O323      0.68470      .   S
    Zr122  O324      0.69545      .   S
    Zr120  O324      0.69545      .   S
    Zr122  O325      1.01525      .   S
    Zr12   O325      1.01525  1_655   S
    Zr123  O326      0.69546      .   S
    Zr121  O326      0.69546      .   S
    Zr123  O327      1.01530      .   S
    Zr13   O327      1.01530      .   S
    Zr176  O328      0.97573      .   S
    Zr0    O328      0.97573      .   S
    Zr177  O329      0.97573      .   S
    Zr1    O329      0.97573      .   S
    Zr120  O330      1.07112      .   S
    Zr8    O330      1.07112      .   S
    Zr121  O331      1.07112      .   S
    Zr9    O331      1.07112      .   S
    Zr81   O332      0.66134  1_545   S
    Zr129  O332      0.66134      .   S
    Zr80   O333      0.66133  1_545   S
    Zr128  O333      0.66133      .   S
    Zr17   O334      0.51469      .   S
    Zr111  O334      0.51469      .   S
    Zr16   O335      0.51469      .   S
    Zr110  O335      0.51469      .   S
    Zr33   O336      0.51189      .   S
    Zr135  O336      0.51189      .   S
    Zr32   O337      0.51173      .   S
    Zr134  O337      0.51173      .   S
    Zr19   O338      0.51006      .   S
    Zr111  O338      0.51006      .   S
    Zr18   O339      0.51006      .   S
    Zr110  O339      0.51006      .   S
    Zr134  O340      0.67949  1_455   S
    Zr83   O340      0.67949      .   S
    Zr134  O341      0.51695      .   S
    Zr34   O341      0.51695      .   S
    Zr135  O342      0.67951      .   S
    Zr82   O342      0.67951      .   S
    Zr135  O343      0.51658      .   S
    Zr35   O343      0.51658      .   S
    Zr82   O344      0.67557  1_545   S
    Zr130  O344      0.67557      .   S
    Zr83   O345      0.67557  1_545   S
    Zr131  O345      0.67557      .   S
    Zr111  O346      0.68084      .   S
    Zr70   O346      0.68084      .   S
    Zr110  O347      0.68078  1_455   S
    Zr71   O347      0.68078      .   S
    Zr129  O348      0.69802      .   S
    Zr131  O348      0.69802      .   S
    Zr129  O349      1.08746      .   S
    Zr9    O349      1.08746      .   S
    Zr128  O350      0.69802      .   S
    Zr130  O350      0.69802      .   S
    Zr128  O351      1.08746      .   S
    Zr8    O351      1.08746      .   S
    Zr71   O352      0.67639      .   S
    Zr107  O352      0.67639      .   S
    Zr71   O353      0.68333      .   S
    Zr109  O353      0.68333      .   S
    Zr70   O354      0.67639      .   S
    Zr106  O354      0.67639      .   S
    Zr70   O355      0.68255      .   S
    Zr108  O355      0.68255      .   S
    Zr131  O356      0.99267      .   S
    Zr12   O356      0.99267      .   S
    Zr130  O357      0.99267      .   S
    Zr13   O357      0.99267      .   S
    Zr0    O358      1.00302      .   S
    Zr108  O358      1.00302      .   S
    Zr0    O359      1.00437      .   S
    Zr148  O359      1.00437      .   S
    Zr1    O360      1.00296      .   S
    Zr109  O360      1.00296      .   S
    Zr1    O361      1.00437      .   S
    Zr149  O361      1.00437      .   S
    Zr107  O362      1.01518      .   S
    Zr12   O362      1.01518      .   S
    Zr107  O363      0.69537      .   S
    Zr105  O363      0.69537      .   S
    Zr106  O364      1.01518      .   S
    Zr13   O364      1.01518      .   S
    Zr106  O365      0.69537      .   S
    Zr104  O365      0.69537      .   S
    Zr108  O366      0.68405      .   S
    Zr68   O366      0.68405      .   S
    Zr109  O367      0.68318      .   S
    Zr69   O367      0.68318      .   S
    Zr13   O368      0.99243      .   S
    Zr115  O368      0.99243      .   S
    Zr12   O369      0.99240  1_655   S
    Zr114  O369      0.99240      .   S
    Zr68   O370      0.66005      .   S
    Zr104  O370      0.66005      .   S
    Zr68   O371      0.54191      .   S
    Zr24   O371      0.54191      .   S
    Zr69   O372      0.66005      .   S
    Zr105  O372      0.66005      .   S
    Zr69   O373      0.54194      .   S
    Zr25   O373      0.54194      .   S
    Zr104  O374      1.07116      .   S
    Zr8    O374      1.07116      .   S
    Zr105  O375      1.07116      .   S
    Zr9    O375      1.07116      .   S
    Zr8    O376      1.09380      .   S
    Zr170  O376      1.09380      .   S
    Zr8    O377      1.08785      .   S
    Zr112  O377      1.08785      .   S
    Zr8    O378      1.09316      .   S
    Zr168  O378      1.09316      .   S
    Zr9    O379      1.09381      .   S
    Zr171  O379      1.09381      .   S
    Zr9    O380      1.08785      .   S
    Zr113  O380      1.08785      .   S
    Zr9    O381      1.09320      .   S
    Zr169  O381      1.09320      .   S
    Zr45   O382      0.51178      .   S
    Zr151  O382      0.51178      .   S
    Zr44   O383      0.51178      .   S
    Zr150  O383      0.51178      .   S
    Zr170  O384      0.63324  1_565   S
    Zr102  O384      0.63324      .   S
    Zr171  O385      0.63363  1_565   S
    Zr103  O385      0.63363      .   S
    Zr149  O386      0.68444      .   S
    Zr91   O386      0.68444      .   S
    Zr149  O387      0.68146      .   S
    Zr89   O387      0.68146      .   S
    Zr148  O388      0.68444      .   S
    Zr90   O388      0.68444      .   S
    Zr148  O389      0.68146      .   S
    Zr88   O389      0.68146      .   S
    Zr112  O390      0.69813      .   S
    Zr114  O390      0.69813      .   S
    Zr113  O391      0.69813      .   S
    Zr115  O391      0.69813      .   S
    Zr151  O392      0.51667      .   S
    Zr47   O392      0.51667      .   S
    Zr151  O393      0.67967      .   S
    Zr90   O393      0.67967      .   S
    Zr150  O394      0.51668      .   S
    Zr46   O394      0.51668      .   S
    Zr150  O395      0.67960  1_455   S
    Zr91   O395      0.67960      .   S
    Zr51   O396      0.54235      .   S
    Zr89   O396      0.54235      .   S
    Zr50   O397      0.54234      .   S
    Zr88   O397      0.54234      .   S
    Zr176  O398      0.97582      .   S
    Zr6    O398      0.97582      .   S
    Zr177  O399      0.97582      .   S
    Zr7    O399      0.97582      .   S
    Zr178  O400      0.97608      .   S
    Zr4    O400      0.97608      .   S
    Zr179  O401      0.97608      .   S
    Zr5    O401      0.97608      .   S
    N402   O403      1.14023      .   S
    Zr7    O403      2.07146      .   S
    N402   O404      1.13998      .   S
    Zr1    O404      2.07066      .   S
    N405   O406      1.14017      .   S
    Zr2    O406      2.07154      .   S
    N405   O407      1.14003      .   S
    Zr4    O407      2.07086      .   S
    N408   O409      1.14023      .   S
    Zr6    O409      2.07147      .   S
    N408   O410      1.13998      .   S
    Zr0    O410      2.07067      .   S
    N411   O412      1.14017      .   S
    Zr3    O412      2.07155      .   S
    N411   O413      1.14003      .   S
    Zr5    O413      2.07087      .   S
