# CIF file generated by openbabel 2.4.90, see http://openbabel.sf.net
data_I
_chemical_name_common ''
_cell_length_a 13.563
_cell_length_b 13.894
_cell_length_c 16.09
_cell_angle_alpha 92.116
_cell_angle_beta 97.132
_cell_angle_gamma 91.853
_space_group_name_H-M_alt 'P 1'
_space_group_name_Hall 'P 1'
loop_
    _symmetry_equiv_pos_as_xyz
    x,y,z
loop_
    _atom_site_label
    _atom_site_type_symbol
    _atom_site_fract_x
    _atom_site_fract_y
    _atom_site_fract_z
    _atom_site_occupancy
    C0      C    0.56388   0.44526   0.73950   1.000
    C1      C    0.24885   0.75871   0.23945   1.000
    C2      C    0.34516   0.66913   0.74563   1.000
    C3      C    0.43620   0.55471   0.25701   1.000
    C4      C    0.75116   0.24124   0.75704   1.000
    C5      C    0.65466   0.33047   0.25081   1.000
    C6      C    0.27038   0.30306   0.69722   1.000
    C7      C    0.09195   0.23923   0.67848   1.000
    C8      C    0.02291   0.45373   0.85757   1.000
    C9      C    0.27494   0.47296   0.98752   1.000
    C10     C    0.26264   0.77817   0.03381   1.000
    C11     C    0.17022   0.79377   0.89091   1.000
    C12     C    0.46826   0.28026   0.47794   1.000
    C13     C    0.79741   0.15954   0.42767   1.000
    C14     C    0.77973   0.25511   0.55904   1.000
    C15     C    0.64757   0.99721   0.41622   1.000
    C16     C    0.58927   0.90655   0.34260   1.000
    C17     C    0.72152   0.91333   0.36723   1.000
    C18     C    0.73497   0.92776   0.21311   1.000
    C19     C    0.60288   0.92656   0.18887   1.000
    C20     C    0.67641   0.02726   0.16132   1.000
    C21     C    0.28272   0.27205   0.19256   1.000
    C22     C    0.23082   0.09626   0.16605   1.000
    C23     C    0.46311   0.02174   0.35454   1.000
    C24     C    0.03232   0.66053   0.62496   1.000
    C25     C    0.92748   0.59047   0.65052   1.000
    C26     C    0.92870   0.71868   0.66194   1.000
    C27     C    0.90704   0.70231   0.81543   1.000
    C28     C    0.90731   0.57428   0.80211   1.000
    C29     C    0.99635   0.63610   0.87898   1.000
    C30     C    0.72973   0.69659   0.29956   1.000
    C31     C    0.90813   0.76046   0.31828   1.000
    C32     C    0.97716   0.54614   0.13904   1.000
    C33     C    0.72522   0.52701   0.00908   1.000
    C34     C    0.73731   0.22179   0.96265   1.000
    C35     C    0.82962   0.20605   0.10557   1.000
    C36     C    0.53183   0.71987   0.51847   1.000
    C37     C    0.20253   0.84004   0.56900   1.000
    C38     C    0.22027   0.74464   0.43754   1.000
    C39     C    0.35240   0.00259   0.58054   1.000
    C40     C    0.41080   0.09313   0.65423   1.000
    C41     C    0.27854   0.08642   0.62968   1.000
    C42     C    0.26520   0.07178   0.78380   1.000
    C43     C    0.39731   0.07293   0.80794   1.000
    C44     C    0.32378   0.00000   0.83545   1.000
    C45     C    0.71719   0.72790   0.80405   1.000
    C46     C    0.76911   0.90369   0.83055   1.000
    C47     C    0.53695   0.97822   0.64196   1.000
    C48     C    0.00000   0.33877   0.37163   1.000
    C49     C    0.07234   0.40880   0.34625   1.000
    C50     C    0.07097   0.28060   0.33462   1.000
    C51     C    0.09276   0.29712   0.18121   1.000
    C52     C    0.09273   0.42515   0.19468   1.000
    C53     C    0.00363   0.36358   0.11770   1.000
    C54     C    0.35142   0.45197   0.78966   1.000
    C55     C    0.24474   0.41690   0.78425   1.000
    C56     C    0.21451   0.33602   0.73105   1.000
    C57     C    0.11667   0.30051   0.72103   1.000
    C58     C    0.04745   0.34343   0.76702   1.000
    C59     C    0.07743   0.42307   0.82097   1.000
    C60     C    0.17467   0.46216   0.82910   1.000
    C61     C    0.94201   0.30473   0.75924   1.000
    C62     C    0.19936   0.54955   0.88544   1.000
    C63     C    0.25048   0.54259   0.96571   1.000
    C64     C    0.27330   0.62411   0.01906   1.000
    C65     C    0.24438   0.71488   0.99207   1.000
    C66     C    0.19268   0.72327   0.91237   1.000
    C67     C    0.16945   0.64110   0.85919   1.000
    C68     C    0.32961   0.61293   0.10440   1.000
    C69     C    0.12247   0.65133   0.77086   1.000
    C70     C    0.60913   0.33316   0.60274   1.000
    C71     C    0.62234   0.27314   0.52578   1.000
    C72     C    0.53961   0.25236   0.46621   1.000
    C73     C    0.54746   0.19790   0.39282   1.000
    C74     C    0.64161   0.16420   0.37943   1.000
    C75     C    0.72489   0.18497   0.43919   1.000
    C76     C    0.71541   0.23897   0.51232   1.000
    C77     C    0.65295   0.11657   0.29634   1.000
    C78     C    0.65448   0.95602   0.35816   1.000
    C79     C    0.66967   0.97295   0.20788   1.000
    C80     C    0.43281   0.34980   0.29425   1.000
    C81     C    0.40491   0.24441   0.28525   1.000
    C82     C    0.32232   0.21596   0.22694   1.000
    C83     C    0.29349   0.11930   0.21233   1.000
    C84     C    0.34506   0.04917   0.25862   1.000
    C85     C    0.42638   0.07730   0.31750   1.000
    C86     C    0.45879   0.17391   0.33055   1.000
    C87     C    0.31259   0.94476   0.24725   1.000
    C88     C    0.97532   0.65539   0.66713   1.000
    C89     C    0.95483   0.63985   0.81654   1.000
    C90     C    0.64864   0.54784   0.20690   1.000
    C91     C    0.75535   0.58284   0.21243   1.000
    C92     C    0.78558   0.66368   0.26568   1.000
    C93     C    0.88342   0.69921   0.27571   1.000
    C94     C    0.95262   0.65639   0.22962   1.000
    C95     C    0.92266   0.57675   0.17567   1.000
    C96     C    0.82541   0.53765   0.16752   1.000
    C97     C    0.05802   0.69520   0.23733   1.000
    C98     C    0.80070   0.45030   0.11115   1.000
    C99     C    0.74962   0.45734   0.03087   1.000
    C100    C    0.72675   0.37586   0.97747   1.000
    C101    C    0.75559   0.28506   0.00000   1.000
    C102    C    0.80724   0.27658   0.08414   1.000
    C103    C    0.83050   0.35871   0.13737   1.000
    C104    C    0.67046   0.38709   0.89213   1.000
    C105    C    0.87738   0.34834   0.22571   1.000
    C106    C    0.39090   0.66684   0.39374   1.000
    C107    C    0.37770   0.72683   0.47071   1.000
    C108    C    0.46045   0.74766   0.53026   1.000
    C109    C    0.45257   0.80204   0.60368   1.000
    C110    C    0.35838   0.83556   0.61715   1.000
    C111    C    0.27508   0.81474   0.55742   1.000
    C112    C    0.28459   0.76083   0.48424   1.000
    C113    C    0.34703   0.88304   0.70029   1.000
    C114    C    0.34556   0.04369   0.63866   1.000
    C115    C    0.33049   0.02656   0.78894   1.000
    C116    C    0.56717   0.65017   0.70226   1.000
    C117    C    0.59507   0.75556   0.71130   1.000
    C118    C    0.67763   0.78399   0.76964   1.000
    C119    C    0.70647   0.88064   0.78424   1.000
    C120    C    0.65494   0.95077   0.73792   1.000
    C121    C    0.57364   0.92266   0.67901   1.000
    C122    C    0.54123   0.82605   0.66596   1.000
    C123    C    0.68744   0.05516   0.74931   1.000
    C124    C    0.02444   0.34394   0.32951   1.000
    C125    C    0.04509   0.35967   0.18015   1.000
    C126    C    0.02306   0.65005   0.75346   1.000
    C127    C    0.66189   0.02077   0.28931   1.000
    C128    C    0.00000   0.34949   0.24317   1.000
    C129    C    0.33818   0.00000   0.70744   1.000
    C130    C    0.17763   0.66118   0.71277   1.000
    C131    C    0.37614   0.53892   0.81615   1.000
    C132    C    0.41225   0.39182   0.76772   1.000
    C133    C    0.35401   0.88610   0.29913   1.000
    C134    C    0.24494   0.91906   0.18796   1.000
    C135    C    0.52447   0.36699   0.60836   1.000
    C136    C    0.68353   0.34996   0.65966   1.000
    C137    C    0.35374   0.52856   0.12465   1.000
    C138    C    0.35268   0.68780   0.15257   1.000
    C139    C    0.91186   0.24180   0.70169   1.000
    C140    C    0.88692   0.33754   0.81225   1.000
    C141    C    0.52491   0.37893   0.30913   1.000
    C142    C    0.36336   0.40822   0.28503   1.000
    C143    C    0.65408   0.16833   0.23256   1.000
    C144    C    0.82215   0.33845   0.28374   1.000
    C145    C    0.62388   0.46089   0.18043   1.000
    C146    C    0.58783   0.60807   0.22875   1.000
    C147    C    0.64600   0.11385   0.69745   1.000
    C148    C    0.75514   0.08082   0.80857   1.000
    C149    C    0.47557   0.63303   0.38809   1.000
    C150    C    0.31649   0.65004   0.33683   1.000
    C151    C    0.64632   0.47146   0.87189   1.000
    C152    C    0.64740   0.31223   0.84394   1.000
    C153    C    0.08815   0.75817   0.29486   1.000
    C154    C    0.11308   0.66246   0.18428   1.000
    C155    C    0.47507   0.62104   0.68735   1.000
    C156    C    0.63663   0.59176   0.71150   1.000
    C157    C    0.34586   0.83114   0.76397   1.000
    O158    O    0.78141   0.28082   0.04207   1.000
    O159    O    0.74645   0.25342   0.98133   1.000
    O160    O    0.74117   0.33046   0.98874   1.000
    O161    O    0.73742   0.49218   0.01998   1.000
    O162    O    0.30146   0.61852   0.06173   1.000
    O163    O    0.26189   0.58335   0.99238   1.000
    O164    O    0.25884   0.66949   0.00556   1.000
    O165    O    0.77516   0.45382   0.07101   1.000
    O166    O    0.73819   0.41660   0.00417   1.000
    O167    O    0.25351   0.74652   0.01294   1.000
    O168    O    0.81843   0.24132   0.09485   1.000
    O169    O    0.81887   0.31765   0.11075   1.000
    O170    O    0.34167   0.57074   0.11453   1.000
    O171    O    0.34115   0.65037   0.12848   1.000
    O172    O    0.81560   0.40450   0.12426   1.000
    O173    O    0.81305   0.49398   0.13934   1.000
    O174    O    0.02436   0.36163   0.14893   1.000
    O175    O    0.39497   0.54163   0.19083   1.000
    O176    O    0.85394   0.35352   0.18154   1.000
    O177    O    0.94991   0.56145   0.15736   1.000
    O178    O    0.30077   0.72326   0.19601   1.000
    O179    O    0.67304   0.00011   0.18460   1.000
    O180    O    0.26216   0.10778   0.18919   1.000
    O181    O    0.87403   0.55720   0.17160   1.000
    O182    O    0.79038   0.56025   0.18998   1.000
    O183    O    0.93764   0.61657   0.20265   1.000
    O184    O    0.06892   0.32840   0.18068   1.000
    O185    O    0.06891   0.39241   0.18742   1.000
    O186    O    0.02254   0.35458   0.21166   1.000
    O187    O    0.63626   0.50436   0.19367   1.000
    O188    O    0.63927   0.39568   0.21562   1.000
    O189    O    0.08555   0.67883   0.21080   1.000
    O190    O    0.18096   0.71059   0.21186   1.000
    O191    O    0.24690   0.83889   0.21371   1.000
    O192    O    0.27877   0.93191   0.21760   1.000
    O193    O    0.63627   0.94975   0.19837   1.000
    O194    O    0.30252   0.24401   0.20975   1.000
    O195    O    0.70199   0.56534   0.20967   1.000
    O196    O    0.61823   0.57796   0.21782   1.000
    O197    O    0.70232   0.95036   0.21049   1.000
    O198    O    0.66578   0.99686   0.24859   1.000
    O199    O    0.30790   0.16763   0.21964   1.000
    O200    O    0.31927   0.08423   0.23548   1.000
    O201    O    0.77046   0.62326   0.23906   1.000
    O202    O    0.93869   0.34892   0.23444   1.000
    O203    O    0.84976   0.34339   0.25473   1.000
    O204    O    0.36361   0.23018   0.25609   1.000
    O205    O    0.51201   0.58139   0.24288   1.000
    O206    O    0.00532   0.67579   0.23348   1.000
    O207    O    0.91802   0.67780   0.25266   1.000
    O208    O    0.65437   0.24940   0.24168   1.000
    O209    O    0.65352   0.14245   0.26445   1.000
    O210    O    0.07308   0.72668   0.26610   1.000
    O211    O    0.16850   0.75844   0.26716   1.000
    O212    O    0.30143   0.82241   0.26929   1.000
    O213    O    0.28267   0.70438   0.28814   1.000
    O214    O    0.01222   0.34672   0.28634   1.000
    O215    O    0.32882   0.99697   0.25293   1.000
    O216    O    0.33330   0.91543   0.27319   1.000
    O217    O    0.73841   0.33446   0.26727   1.000
    O218    O    0.58979   0.35470   0.27997   1.000
    O219    O    0.39978   0.48147   0.27102   1.000
    O220    O    0.45588   0.59387   0.32255   1.000
    O221    O    0.38572   0.06323   0.28806   1.000
    O222    O    0.83450   0.68144   0.27069   1.000
    O223    O    0.75765   0.68013   0.28262   1.000
    O224    O    0.89577   0.72984   0.29699   1.000
    O225    O    0.39808   0.37901   0.28964   1.000
    O226    O    0.41886   0.29710   0.28975   1.000
    O227    O    0.43185   0.20916   0.30790   1.000
    O228    O    0.65742   0.06867   0.29283   1.000
    O229    O    0.65819   0.98840   0.32373   1.000
    O230    O    0.47886   0.36436   0.30169   1.000
    O231    O    0.64728   0.14039   0.33788   1.000
    O232    O    0.44258   0.12560   0.32402   1.000
    O233    O    0.44475   0.04952   0.33602   1.000
    O234    O    0.04770   0.31227   0.33206   1.000
    O235    O    0.04839   0.37637   0.33788   1.000
    O236    O    0.01222   0.34136   0.35057   1.000
    O237    O    0.50312   0.18590   0.36169   1.000
    O238    O    0.35370   0.65844   0.36529   1.000
    O239    O    0.62187   0.93128   0.35038   1.000
    O240    O    0.68800   0.93468   0.36269   1.000
    O241    O    0.65102   0.97661   0.38719   1.000
    O242    O    0.59453   0.18105   0.38612   1.000
    O243    O    0.68325   0.17459   0.40931   1.000
    O244    O    0.43324   0.64994   0.39092   1.000
    O245    O    0.54353   0.22513   0.42951   1.000
    O246    O    0.38430   0.69683   0.43223   1.000
    O247    O    0.76115   0.17226   0.43343   1.000
    O248    O    0.25243   0.75273   0.46089   1.000
    O249    O    0.72015   0.21197   0.47576   1.000
    O250    O    0.50393   0.26631   0.47207   1.000
    O251    O    0.58097   0.26275   0.49599   1.000
    O252    O    0.33114   0.74383   0.47748   1.000
    O253    O    0.41907   0.73724   0.50049   1.000
    O254    O    0.27983   0.78778   0.52083   1.000
    O255    O    0.66888   0.25605   0.51905   1.000
    O256    O    0.74757   0.24704   0.53568   1.000
    O257    O    0.49614   0.73377   0.52437   1.000
    O258    O    0.61574   0.30315   0.56426   1.000
    O259    O    0.45651   0.77485   0.56697   1.000
    O260    O    0.23880   0.82739   0.56321   1.000
    O261    O    0.31673   0.82515   0.58728   1.000
    O262    O    0.34898   0.02314   0.60960   1.000
    O263    O    0.56680   0.35008   0.60555   1.000
    O264    O    0.64633   0.34156   0.63120   1.000
    O265    O    0.40548   0.81880   0.61041   1.000
    O266    O    0.49690   0.81404   0.63482   1.000
    O267    O    0.54418   0.40613   0.67393   1.000
    O268    O    0.35271   0.85930   0.65872   1.000
    O269    O    0.00382   0.65796   0.64604   1.000
    O270    O    0.31205   0.06506   0.63417   1.000
    O271    O    0.37818   0.06841   0.64644   1.000
    O272    O    0.34187   0.02185   0.67305   1.000
    O273    O    0.55529   0.95044   0.66049   1.000
    O274    O    0.95140   0.62293   0.65882   1.000
    O275    O    0.71734   0.29560   0.70835   1.000
    O276    O    0.95201   0.68704   0.66454   1.000
    O277    O    0.55744   0.87435   0.67249   1.000
    O278    O    0.56815   0.79080   0.68863   1.000
    O279    O    0.99919   0.65272   0.71029   1.000
    O280    O    0.10431   0.26987   0.69976   1.000
    O281    O    0.61429   0.93671   0.70847   1.000
    O282    O    0.52112   0.63561   0.69481   1.000
    O283    O    0.41011   0.64509   0.71649   1.000
    O284    O    0.24244   0.31954   0.71413   1.000
    O285    O    0.66672   0.08451   0.72338   1.000
    O286    O    0.69858   0.17755   0.72725   1.000
    O287    O    0.34260   0.94152   0.70387   1.000
    O288    O    0.34644   0.85709   0.73213   1.000
    O289    O    0.83151   0.24152   0.72936   1.000
    O290    O    0.92693   0.27327   0.73047   1.000
    O291    O    0.58112   0.70287   0.70678   1.000
    O292    O    0.60190   0.62097   0.70688   1.000
    O293    O    0.33433   0.01328   0.74819   1.000
    O294    O    0.63635   0.76977   0.74047   1.000
    O295    O    0.60026   0.51851   0.72550   1.000
    O296    O    0.26139   0.66515   0.72920   1.000
    O297    O    0.15005   0.65626   0.74181   1.000
    O298    O    0.16559   0.31827   0.72604   1.000
    O299    O    0.08206   0.32197   0.74403   1.000
    O300    O    0.22963   0.37646   0.75765   1.000
    O301    O    0.67119   0.00297   0.74361   1.000
    O302    O    0.68071   0.91571   0.76108   1.000
    O303    O    0.48806   0.41854   0.75361   1.000
    O304    O    0.60510   0.45836   0.80569   1.000
    O305    O    0.34551   0.75013   0.75480   1.000
    O306    O    0.36065   0.60402   0.78089   1.000
    O307    O    0.72129   0.06799   0.77894   1.000
    O308    O    0.07277   0.65069   0.76216   1.000
    O309    O    0.98895   0.64495   0.78500   1.000
    O310    O    0.75315   0.16103   0.78281   1.000
    O311    O    0.81904   0.28939   0.78465   1.000
    O312    O    0.69928   0.27674   0.80049   1.000
    O313    O    0.99473   0.32408   0.76313   1.000
    O314    O    0.91446   0.32114   0.78575   1.000
    O315    O    0.06244   0.38325   0.79400   1.000
    O316    O    0.38183   0.42189   0.77869   1.000
    O317    O    0.69205   0.83232   0.77694   1.000
    O318    O    0.69741   0.75594   0.78684   1.000
    O319    O    0.14596   0.64622   0.81502   1.000
    O320    O    0.29785   0.04917   0.78637   1.000
    O321    O    0.73779   0.89217   0.80740   1.000
    O322    O    0.29808   0.43443   0.78695   1.000
    O323    O    0.20971   0.43953   0.80667   1.000
    O324    O    0.36390   0.04975   0.79844   1.000
    O325    O    0.32713   0.01328   0.81219   1.000
    O326    O    0.36378   0.49544   0.80291   1.000
    O327    O    0.93107   0.60707   0.80932   1.000
    O328    O    0.93094   0.67108   0.81599   1.000
    O329    O    0.97559   0.63797   0.84776   1.000
    O330    O    0.12605   0.44261   0.82503   1.000
    O331    O    0.05017   0.43840   0.83927   1.000
    O332    O    0.18702   0.50585   0.85727   1.000
    O333    O    0.65893   0.34966   0.86803   1.000
    O334    O    0.18441   0.59532   0.87231   1.000
    O335    O    0.18106   0.68218   0.88578   1.000
    O336    O    0.65839   0.42928   0.88201   1.000
    O337    O    0.22492   0.54607   0.92557   1.000
    O338    O    0.18145   0.75852   0.90164   1.000
    O339    O    0.69861   0.38148   0.93480   1.000
    O340    O    0.21853   0.71907   0.95222   1.000
    O341    O    0.26271   0.50777   0.97661   1.000
loop_
    _geom_bond_atom_site_label_1
    _geom_bond_atom_site_label_2
    _geom_bond_distance
    _geom_bond_site_symmetry_2
    _ccdc_geom_bond_type
    C101   O158      0.72782      .   S
    C102   O158      0.72782      .   S
    C101   O159      0.52562  1_554   S
    C34    O159      0.52562      .   S
    C101   O160      0.69038  1_554   S
    C100   O160      0.69038      .   S
    C33    O161      0.54455      .   S
    C99    O161      0.54455      .   S
    C64    O162      0.75096      .   S
    C68    O162      0.75096      .   S
    C64    O163      0.69916  1_554   S
    C63    O163      0.69916      .   S
    C64    O164      0.70052      .   S
    C65    O164      0.70052  1_556   S
    C99    O165      0.69812      .   S
    C98    O165      0.69812      .   S
    C99    O166      0.69917      .   S
    C100   O166      0.69917  1_556   S
    C10    O167      0.54471      .   S
    C65    O167      0.54471  1_556   S
    C102   O168      0.54538      .   S
    C35    O168      0.54538      .   S
    C102   O169      0.70224      .   S
    C103   O169      0.70224      .   S
    C68    O170      0.63525      .   S
    C137   O170      0.63525      .   S
    C68    O171      0.64032      .   S
    C138   O171      0.64032      .   S
    C98    O172      0.70557      .   S
    C103   O172      0.70557      .   S
    C98    O173      0.74585      .   S
    C96    O173      0.74585      .   S
    C53    O174      0.54643      .   S
    C125   O174      0.54643      .   S
    C137   O175      1.14490      .   S
    C3     O175      1.14490      .   S
    C103   O176      0.74868      .   S
    C105   O176      0.74868      .   S
    C32    O177      0.54428      .   S
    C95    O177      0.54428      .   S
    C138   O178      1.16031      .   S
    C1     O178      1.16031      .   S
    C20    O179      0.54617      .   S
    C79    O179      0.54617  1_565   S
    C22    O180      0.54476      .   S
    C83    O180      0.54476      .   S
    C96    O181      0.69955      .   S
    C95    O181      0.69955      .   S
    C96    O182      0.70619      .   S
    C91    O182      0.70619      .   S
    C95    O183      0.69914      .   S
    C94    O183      0.69914      .   S
    C125   O184      0.54963      .   S
    C51    O184      0.54963      .   S
    C125   O185      0.54968      .   S
    C52    O185      0.54968      .   S
    C125   O186      0.62873      .   S
    C128   O186      0.62873      .   S
    C145   O187      0.64301      .   S
    C90    O187      0.64301      .   S
    C145   O188      1.09807      .   S
    C5     O188      1.09807      .   S
    C154   O189      0.64128      .   S
    C97    O189      0.64128      .   S
    C154   O190      1.15269      .   S
    C1     O190      1.15269      .   S
    C134   O191      1.20267      .   S
    C1     O191      1.20267      .   S
    C134   O192      0.63554      .   S
    C87    O192      0.63554      .   S
    C19    O193      0.54970      .   S
    C79    O193      0.54970      .   S
    C21    O194      0.54470      .   S
    C82    O194      0.54470      .   S
    C90    O195      0.75141      .   S
    C91    O195      0.75141      .   S
    C90    O196      0.63226      .   S
    C146   O196      0.63226      .   S
    C79    O197      0.54933      .   S
    C18    O197      0.54933      .   S
    C79    O198      0.73215      .   S
    C127   O198      0.73215  1_545   S
    C83    O199      0.69495      .   S
    C82    O199      0.69495      .   S
    C83    O200      0.70028      .   S
    C84    O200      0.70028      .   S
    C91    O201      0.70278      .   S
    C92    O201      0.70278      .   S
    C105   O202      0.82570      .   S
    C128   O202      0.82570  1_455   S
    C105   O203      0.63802      .   S
    C144   O203      0.63802      .   S
    C82    O204      0.70251      .   S
    C81    O204      0.70251      .   S
    C146   O205      1.13408      .   S
    C3     O205      1.13408      .   S
    C94    O206      0.75014  1_655   S
    C97    O206      0.75014      .   S
    C94    O207      0.70019      .   S
    C93    O207      0.70019      .   S
    C143   O208      1.13031      .   S
    C5     O208      1.13031      .   S
    C143   O209      0.63800      .   S
    C77    O209      0.63800      .   S
    C97    O210      0.63491      .   S
    C153   O210      0.63491      .   S
    C1     O211      1.22754      .   S
    C153   O211      1.22754      .   S
    C1     O212      1.16836      .   S
    C133   O212      1.16836      .   S
    C1     O213      1.17090      .   S
    C150   O213      1.17090      .   S
    C128   O214      0.69655      .   S
    C124   O214      0.69655      .   S
    C87    O215      0.75012      .   S
    C84    O215      0.75012  1_545   S
    C87    O216      0.64039      .   S
    C133   O216      0.64039      .   S
    C5     O217      1.13290      .   S
    C144   O217      1.13290      .   S
    C5     O218      1.10352      .   S
    C141   O218      1.10352      .   S
    C3     O219      1.15865      .   S
    C142   O219      1.15865      .   S
    C3     O220      1.16519      .   S
    C149   O220      1.16519      .   S
    C84    O221      0.69859      .   S
    C85    O221      0.69859      .   S
    C92    O222      0.69445      .   S
    C93    O222      0.69445      .   S
    C92    O223      0.54467      .   S
    C30    O223      0.54467      .   S
    C93    O224      0.54485      .   S
    C31    O224      0.54485      .   S
    C142   O225      0.63086      .   S
    C80    O225      0.63086      .   S
    C81    O226      0.74887      .   S
    C80    O226      0.74887      .   S
    C81    O227      0.70561      .   S
    C86    O227      0.70561      .   S
    C127   O228      0.67114      .   S
    C77    O228      0.67114      .   S
    C127   O229      0.73175  1_545   S
    C78    O229      0.73175      .   S
    C80    O230      0.64566      .   S
    C141   O230      0.64566      .   S
    C77    O231      0.74856      .   S
    C74    O231      0.74856      .   S
    C85    O232      0.69949      .   S
    C86    O232      0.69949      .   S
    C85    O233      0.54416      .   S
    C23    O233      0.54416      .   S
    C124   O234      0.54955      .   S
    C50    O234      0.54955      .   S
    C124   O235      0.54946      .   S
    C49    O235      0.54946      .   S
    C124   O236      0.39753      .   S
    C48    O236      0.39753      .   S
    C86    O237      0.74357      .   S
    C73    O237      0.74357      .   S
    C150   O238      0.64244      .   S
    C106   O238      0.64244      .   S
    C16    O239      0.55010      .   S
    C78    O239      0.55010      .   S
    C78    O240      0.54959      .   S
    C17    O240      0.54959      .   S
    C78    O241      0.54654      .   S
    C15    O241      0.54654      .   S
    C74    O242      0.70637      .   S
    C73    O242      0.70637      .   S
    C74    O243      0.70226      .   S
    C75    O243      0.70226      .   S
    C149   O244      0.63348      .   S
    C106   O244      0.63348      .   S
    C73    O245      0.69795      .   S
    C72    O245      0.69795      .   S
    C106   O246      0.74984      .   S
    C107   O246      0.74984      .   S
    C13    O247      0.54532      .   S
    C75    O247      0.54532      .   S
    C38    O248      0.54504      .   S
    C112   O248      0.54504      .   S
    C75    O249      0.69692      .   S
    C76    O249      0.69692      .   S
    C72    O250      0.54466      .   S
    C12    O250      0.54466      .   S
    C72    O251      0.69874      .   S
    C71    O251      0.69874      .   S
    C107   O252      0.70082      .   S
    C112   O252      0.70082      .   S
    C107   O253      0.69874      .   S
    C108   O253      0.69874      .   S
    C112   O254      0.69692      .   S
    C111   O254      0.69692      .   S
    C76    O255      0.70083      .   S
    C71    O255      0.70083      .   S
    C76    O256      0.54504      .   S
    C14    O256      0.54504      .   S
    C36    O257      0.54466      .   S
    C108   O257      0.54466      .   S
    C71    O258      0.74987      .   S
    C70    O258      0.74987      .   S
    C108   O259      0.69793      .   S
    C109   O259      0.69793      .   S
    C111   O260      0.54532      .   S
    C37    O260      0.54532      .   S
    C111   O261      0.70224      .   S
    C110   O261      0.70224      .   S
    C39    O262      0.54653      .   S
    C114   O262      0.54653      .   S
    C70    O263      0.63347      .   S
    C135   O263      0.63347      .   S
    C70    O264      0.64246      .   S
    C136   O264      0.64246      .   S
    C109   O265      0.70634      .   S
    C110   O265      0.70634      .   S
    C109   O266      0.74357      .   S
    C122   O266      0.74357      .   S
    C135   O267      1.16543      .   S
    C0     O267      1.16543      .   S
    C110   O268      0.74851      .   S
    C113   O268      0.74851      .   S
    C24    O269      0.54623      .   S
    C88    O269      0.54623  1_655   S
    C41    O270      0.54959      .   S
    C114   O270      0.54959      .   S
    C114   O271      0.55010      .   S
    C40    O271      0.55010      .   S
    C114   O272      0.64740      .   S
    C129   O272      0.64740      .   S
    C47    O273      0.54416      .   S
    C121   O273      0.54416      .   S
    C25    O274      0.54945      .   S
    C88    O274      0.54945      .   S
    C136   O275      1.17107      .   S
    C4     O275      1.17107      .   S
    C26    O276      0.54956      .   S
    C88    O276      0.54956      .   S
    C122   O277      0.69947      .   S
    C121   O277      0.69947      .   S
    C122   O278      0.70559      .   S
    C117   O278      0.70559      .   S
    C88    O279      0.73171      .   S
    C126   O279      0.73171  1_455   S
    C7     O280      0.54484      .   S
    C57    O280      0.54484      .   S
    C121   O281      0.69860      .   S
    C120   O281      0.69860      .   S
    C155   O282      0.64562      .   S
    C116   O282      0.64562      .   S
    C155   O283      1.10351      .   S
    C2     O283      1.10351      .   S
    C6     O284      0.54466      .   S
    C56    O284      0.54466      .   S
    C147   O285      0.64043      .   S
    C123   O285      0.64043      .   S
    C147   O286      1.16811      .   S
    C4     O286      1.16811      .   S
    C113   O287      0.81709      .   S
    C129   O287      0.81709  1_545   S
    C113   O288      0.63803      .   S
    C157   O288      0.63803      .   S
    C139   O289      1.22734      .   S
    C4     O289      1.22734      .   S
    C139   O290      0.63491      .   S
    C61    O290      0.63491      .   S
    C116   O291      0.74883      .   S
    C117   O291      0.74883      .   S
    C116   O292      0.63088      .   S
    C156   O292      0.63088      .   S
    C129   O293      0.68322      .   S
    C115   O293      0.68322      .   S
    C117   O294      0.70250      .   S
    C118   O294      0.70250      .   S
    C156   O295      1.15846      .   S
    C0     O295      1.15846      .   S
    C130   O296      1.13309      .   S
    C2     O296      1.13309      .   S
    C130   O297      0.63802      .   S
    C69    O297      0.63802      .   S
    C57    O298      0.69446      .   S
    C56    O298      0.69446      .   S
    C57    O299      0.70018      .   S
    C58    O299      0.70018      .   S
    C56    O300      0.70277      .   S
    C55    O300      0.70277      .   S
    C120   O301      0.75007  1_565   S
    C123   O301      0.75007      .   S
    C120   O302      0.70028      .   S
    C119   O302      0.70028      .   S
    C0     O303      1.13415      .   S
    C132   O303      1.13415      .   S
    C0     O304      1.14516      .   S
    C151   O304      1.14516      .   S
    C2     O305      1.12944      .   S
    C157   O305      1.12944      .   S
    C2     O306      1.09766      .   S
    C131   O306      1.09766      .   S
    C123   O307      0.63550      .   S
    C148   O307      0.63550      .   S
    C126   O308      0.67103      .   S
    C69    O308      0.67103      .   S
    C126   O309      0.73176  1_455   S
    C89    O309      0.73176      .   S
    C4     O310      1.20326      .   S
    C148   O310      1.20326      .   S
    C4     O311      1.15288      .   S
    C140   O311      1.15288      .   S
    C4     O312      1.16020      .   S
    C152   O312      1.16020      .   S
    C61    O313      0.75013      .   S
    C58    O313      0.75013  1_455   S
    C61    O314      0.64127      .   S
    C140   O314      0.64127      .   S
    C58    O315      0.69912      .   S
    C59    O315      0.69912      .   S
    C132   O316      0.63221      .   S
    C54    O316      0.63221      .   S
    C118   O317      0.69493      .   S
    C119   O317      0.69493      .   S
    C118   O318      0.54471      .   S
    C45    O318      0.54471      .   S
    C69    O319      0.74866      .   S
    C67    O319      0.74866      .   S
    C42    O320      0.54934      .   S
    C115   O320      0.54934      .   S
    C119   O321      0.54476      .   S
    C46    O321      0.54476      .   S
    C55    O322      0.75139      .   S
    C54    O322      0.75139      .   S
    C55    O323      0.70621      .   S
    C60    O323      0.70621      .   S
    C115   O324      0.54971      .   S
    C43    O324      0.54971      .   S
    C115   O325      0.43002      .   S
    C44    O325      0.43002      .   S
    C54    O326      0.64302      .   S
    C131   O326      0.64302      .   S
    C28    O327      0.54968      .   S
    C89    O327      0.54968      .   S
    C27    O328      0.54962      .   S
    C89    O328      0.54962      .   S
    C89    O329      0.54644      .   S
    C29    O329      0.54644      .   S
    C59    O330      0.69954      .   S
    C60    O330      0.69954      .   S
    C59    O331      0.54427      .   S
    C8     O331      0.54427      .   S
    C60    O332      0.74585      .   S
    C62    O332      0.74585      .   S
    C152   O333      0.64034      .   S
    C104   O333      0.64034      .   S
    C67    O334      0.70558      .   S
    C62    O334      0.70558      .   S
    C67    O335      0.70224      .   S
    C66    O335      0.70224      .   S
    C151   O336      0.63523      .   S
    C104   O336      0.63523      .   S
    C62    O337      0.69809      .   S
    C63    O337      0.69809      .   S
    C11    O338      0.54538      .   S
    C66    O338      0.54538      .   S
    C104   O339      0.75098      .   S
    C100   O339      0.75098      .   S
    C66    O340      0.69693      .   S
    C65    O340      0.69693      .   S
    C63    O341      0.54454      .   S
    C9     O341      0.54454      .   S
