# CIF file generated by openbabel 2.4.90, see http://openbabel.sf.net
data_I
_chemical_name_common ''
_cell_length_a 19.597
_cell_length_b 14.255
_cell_length_c 14.261
_cell_angle_alpha 102.692
_cell_angle_beta 103.349
_cell_angle_gamma 103.22
_space_group_name_H-M_alt 'P 1'
_space_group_name_Hall 'P 1'
loop_
    _symmetry_equiv_pos_as_xyz
    x,y,z
loop_
    _atom_site_label
    _atom_site_type_symbol
    _atom_site_fract_x
    _atom_site_fract_y
    _atom_site_fract_z
    _atom_site_occupancy
    Zn0     Zn   0.95249   0.83495   0.27133   1.000
    Zn1     Zn   0.29744   0.72872   0.16498   1.000
    Zn2     Zn   0.79744   0.72872   0.16498   1.000
    Zn3     Zn   0.04749   0.16505   0.72867   1.000
    Zn4     Zn   0.54750   0.16505   0.72867   1.000
    Zn5     Zn   0.20253   0.27127   0.83502   1.000
    Zn6     Zn   0.70253   0.27128   0.83500   1.000
    Zn7     Zn   0.45248   0.83494   0.27133   1.000
    C8      C    0.40280   0.61071   0.21290   1.000
    C9      C    0.90280   0.61071   0.21289   1.000
    C10     C    0.34492   0.95092   0.21030   1.000
    C11     C    0.84492   0.95093   0.21038   1.000
    C12     C    0.34731   0.78709   0.38929   1.000
    C13     C    0.84731   0.78711   0.38929   1.000
    C14     C    0.40495   0.78994   0.04913   1.000
    C15     C    0.90496   0.78995   0.04913   1.000
    C16     C    0.09718   0.38930   0.78715   1.000
    C17     C    0.59718   0.38930   0.78714   1.000
    C18     C    0.15507   0.04908   0.78962   1.000
    C19     C    0.65506   0.04909   0.78963   1.000
    C20     C    0.15267   0.21294   0.61072   1.000
    C21     C    0.65267   0.21295   0.61072   1.000
    C22     C    0.09502   0.21005   0.95088   1.000
    C23     C    0.59504   0.21006   0.95088   1.000
    O24     O    0.45866   0.68722   0.23868   1.000
    O25     O    0.95866   0.68722   0.23869   1.000
    O26     O    0.41459   0.81501   0.39052   1.000
    O27     O    0.91459   0.81501   0.39052   1.000
    O28     O    0.40626   0.95472   0.26912   1.000
    O29     O    0.90627   0.95473   0.26910   1.000
    O30     O    0.29102   0.87192   0.16257   1.000
    O31     O    0.79102   0.87193   0.16260   1.000
    O32     O    0.29139   0.76129   0.31272   1.000
    O33     O    0.79139   0.76128   0.31272   1.000
    O34     O    0.33549   0.60954   0.18483   1.000
    O35     O    0.83549   0.60954   0.18483   1.000
    O36     O    0.34363   0.73131   0.04522   1.000
    O37     O    0.84364   0.73134   0.04522   1.000
    O38     O    0.45885   0.83769   0.12822   1.000
    O39     O    0.95886   0.83769   0.12822   1.000
    O40     O    0.04132   0.31278   0.76132   1.000
    O41     O    0.54132   0.31278   0.76130   1.000
    O42     O    0.08539   0.18501   0.60949   1.000
    O43     O    0.58539   0.18502   0.60948   1.000
    O44     O    0.09372   0.04527   0.73088   1.000
    O45     O    0.59374   0.04527   0.73083   1.000
    O46     O    0.20896   0.12808   0.83740   1.000
    O47     O    0.70895   0.12809   0.83746   1.000
    O48     O    0.20859   0.23871   0.68728   1.000
    O49     O    0.70859   0.23871   0.68728   1.000
    O50     O    0.16449   0.39046   0.81520   1.000
    O51     O    0.66449   0.39046   0.81519   1.000
    O52     O    0.15635   0.26864   0.95478   1.000
    O53     O    0.65635   0.26869   0.95478   1.000
    O54     O    0.04112   0.16232   0.87179   1.000
    O55     O    0.54114   0.16230   0.87178   1.000
    Ts56    Ts   0.98877   0.85765   0.29920   1.000
    Ts57    Ts   0.26116   0.70081   0.14219   1.000
    Ts58    Ts   0.76116   0.70081   0.14219   1.000
    Ts59    Ts   0.01121   0.14232   0.70079   1.000
    Ts60    Ts   0.51121   0.14233   0.70079   1.000
    Ts61    Ts   0.23881   0.29918   0.85779   1.000
    Ts62    Ts   0.73881   0.29918   0.85777   1.000
    Ts63    Ts   0.48876   0.85764   0.29920   1.000
    Og64    Og   0.40685   0.57803   0.21369   1.000
    Og65    Og   0.90685   0.57803   0.21369   1.000
    Og66    Og   0.34198   0.98297   0.20515   1.000
    Og67    Og   0.84198   0.98297   0.20521   1.000
    Og68    Og   0.34327   0.78636   0.42196   1.000
    Og69    Og   0.84327   0.78638   0.42196   1.000
    Og70    Og   0.40791   0.79508   0.01710   1.000
    Og71    Og   0.90792   0.79509   0.01710   1.000
    Og72    Og   0.09313   0.42198   0.78637   1.000
    Og73    Og   0.59313   0.42198   0.78636   1.000
    Og74    Og   0.15801   0.01703   0.79479   1.000
    Og75    Og   0.65801   0.01704   0.79479   1.000
    Og76    Og   0.15671   0.21368   0.57805   1.000
    Og77    Og   0.65671   0.21370   0.57805   1.000
    Og78    Og   0.09207   0.20491   0.98291   1.000
    Og79    Og   0.59208   0.20492   0.98291   1.000
loop_
    _geom_bond_atom_site_label_1
    _geom_bond_atom_site_label_2
    _geom_bond_distance
    _geom_bond_site_symmetry_2
    _ccdc_geom_bond_type
    O36    C14       1.27861      .   S
    O36    Zn1       2.11288      .   S
    O37    C15       1.27860      .   S
    O37    Zn2       2.11294      .   S
    C14    O38       1.27854      .   S
    C15    O39       1.27856      .   S
    O39    Zn0       2.08157      .   S
    O38    Zn7       2.08155      .   S
    O30    Zn1       2.08087      .   S
    O30    C10       1.27844      .   S
    O31    Zn2       2.08091      .   S
    O31    C11       1.27861      .   S
    Zn2    O35       2.05323      .   S
    Zn2    O33       2.09271      .   S
    Zn1    O34       2.05323      .   S
    Zn1    O32       2.09270      .   S
    O34    C8        1.28213      .   S
    O35    C9        1.28213      .   S
    C10    O28       1.27909      .   S
    C11    O29       1.27864      .   S
    C9     O25       1.27076      .   S
    C8     O24       1.27076      .   S
    O24    Zn7       2.09233      .   S
    O25    Zn0       2.09227      .   S
    O29    Zn0       2.11057      .   S
    O28    Zn7       2.11061      .   S
    Zn0    O27       2.05426      .   S
    Zn7    O26       2.05418      .   S
    O32    C12       1.27089      .   S
    O33    C13       1.27088      .   S
    C13    O27       1.28195      .   S
    C12    O26       1.28199      .   S
    O43    C21       1.28202      .   S
    O43    Zn4       2.05433      .   S
    O42    C20       1.28202      .   S
    O42    Zn3       2.05428      .   S
    C21    O49       1.27083      .   S
    C20    O48       1.27083      .   S
    O49    Zn6       2.09245      .   S
    O48    Zn5       2.09273      .   S
    Zn4    O45       2.11080      .   S
    Zn4    O41       2.09243      .   S
    Zn4    O55       2.08149      .   S
    Zn3    O44       2.11073      .   S
    Zn3    O40       2.09237      .   S
    Zn3    O54       2.08163      .   S
    O45    C19       1.27869      .   S
    O44    C18       1.27870      .   S
    O41    C17       1.27078      .   S
    O40    C16       1.27081      .   S
    C17    O51       1.28208      .   S
    C16    O50       1.28209      .   S
    C18    O46       1.27850      .   S
    C19    O47       1.27856      .   S
    O51    Zn6       2.05304      .   S
    O50    Zn5       2.05310      .   S
    Zn6    O47       2.08087      .   S
    Zn6    O53       2.11297      .   S
    Zn5    O46       2.08078      .   S
    Zn5    O52       2.11277      .   S
    O55    C23       1.27867      .   S
    O54    C22       1.27863      .   S
    C22    O52       1.27855      .   S
    C23    O53       1.27858      .   S
    Zn7    Zn1       2.92971      .   S
    Zn0    Zn2       2.92979      .   S
    Zn3    Zn5       2.92981      .   S
    Zn4    Zn6       2.92962      .   S
    Zn0    Ts56      0.68992      .   S
    Zn1    Ts57      0.69024      .   S
    Zn2    Ts58      0.69023      .   S
    Zn3    Ts59      0.68993      .   S
    Zn4    Ts60      0.69000      .   S
    Zn5    Ts61      0.69023      .   S
    Zn6    Ts62      0.69025      .   S
    Zn7    Ts63      0.68998      .   S
    C8     Og64      0.49215      .   S
    C9     Og65      0.49215      .   S
    C10    Og66      0.49216      .   S
    C11    Og67      0.49226      .   S
    C12    Og68      0.49217      .   S
    C13    Og69      0.49217      .   S
    C14    Og70      0.49224      .   S
    C15    Og71      0.49223      .   S
    C16    Og72      0.49216      .   S
    C17    Og73      0.49216      .   S
    C18    Og74      0.49228      .   S
    C19    Og75      0.49227      .   S
    C20    Og76      0.49216      .   S
    C21    Og77      0.49217      .   S
    C22    Og78      0.49223      .   S
    C23    Og79      0.49224      .   S
