# CIF file generated by openbabel 2.4.90, see http://openbabel.sf.net
data_I
_chemical_name_common ''
_cell_length_a 19.597
_cell_length_b 14.255
_cell_length_c 14.261
_cell_angle_alpha 102.692
_cell_angle_beta 103.349
_cell_angle_gamma 103.22
_space_group_name_H-M_alt 'P 1'
_space_group_name_Hall 'P 1'
loop_
    _symmetry_equiv_pos_as_xyz
    x,y,z
loop_
    _atom_site_label
    _atom_site_type_symbol
    _atom_site_fract_x
    _atom_site_fract_y
    _atom_site_fract_z
    _atom_site_occupancy
    C0      C    0.40280   0.61071   0.21290   1.000
    C1      C    0.90280   0.61071   0.21289   1.000
    C2      C    0.34492   0.95092   0.21030   1.000
    C3      C    0.84492   0.95093   0.21038   1.000
    C4      C    0.34731   0.78709   0.38929   1.000
    C5      C    0.84731   0.78711   0.38929   1.000
    C6      C    0.40495   0.78994   0.04913   1.000
    C7      C    0.90496   0.78995   0.04913   1.000
    C8      C    0.09718   0.38930   0.78715   1.000
    C9      C    0.59718   0.38930   0.78714   1.000
    C10     C    0.15507   0.04908   0.78962   1.000
    C11     C    0.65506   0.04909   0.78963   1.000
    C12     C    0.15267   0.21294   0.61072   1.000
    C13     C    0.65267   0.21295   0.61072   1.000
    C14     C    0.09502   0.21005   0.95088   1.000
    C15     C    0.59504   0.21006   0.95088   1.000
