# CIF file generated by openbabel 2.4.90, see http://openbabel.sf.net
data_I
_chemical_name_common ''
_cell_length_a 19.597
_cell_length_b 14.255
_cell_length_c 14.261
_cell_angle_alpha 102.692
_cell_angle_beta 103.349
_cell_angle_gamma 103.22
_space_group_name_H-M_alt 'P 1'
_space_group_name_Hall 'P 1'
loop_
    _symmetry_equiv_pos_as_xyz
    x,y,z
loop_
    _atom_site_label
    _atom_site_type_symbol
    _atom_site_fract_x
    _atom_site_fract_y
    _atom_site_fract_z
    _atom_site_occupancy
    Zr0     Zr   0.45248   0.83494   0.27133   1.000
    Zr1     Zr   0.95249   0.83495   0.27133   1.000
    Zr2     Zr   0.29744   0.72872   0.16498   1.000
    Zr3     Zr   0.79744   0.72872   0.16498   1.000
    Zr4     Zr   0.04749   0.16505   0.72867   1.000
    Zr5     Zr   0.54750   0.16505   0.72867   1.000
    Zr6     Zr   0.20253   0.27127   0.83502   1.000
    Zr7     Zr   0.70253   0.27128   0.83500   1.000
    Zr8     Zr   0.40280   0.61071   0.21290   1.000
    Zr9     Zr   0.90280   0.61071   0.21289   1.000
    Zr10    Zr   0.34492   0.95092   0.21030   1.000
    Zr11    Zr   0.84492   0.95093   0.21038   1.000
    Zr12    Zr   0.34731   0.78709   0.38929   1.000
    Zr13    Zr   0.84731   0.78711   0.38929   1.000
    Zr14    Zr   0.40495   0.78994   0.04913   1.000
    Zr15    Zr   0.90496   0.78995   0.04913   1.000
    Zr16    Zr   0.09718   0.38930   0.78715   1.000
    Zr17    Zr   0.59718   0.38930   0.78714   1.000
    Zr18    Zr   0.15507   0.04908   0.78962   1.000
    Zr19    Zr   0.65506   0.04909   0.78963   1.000
    Zr20    Zr   0.15267   0.21294   0.61072   1.000
    Zr21    Zr   0.65267   0.21295   0.61072   1.000
    Zr22    Zr   0.09502   0.21005   0.95088   1.000
    Zr23    Zr   0.59504   0.21006   0.95088   1.000
    Zr24    Zr   0.45866   0.68722   0.23868   1.000
    Zr25    Zr   0.95866   0.68722   0.23869   1.000
    Zr26    Zr   0.41459   0.81501   0.39052   1.000
    Zr27    Zr   0.91459   0.81501   0.39052   1.000
    Zr28    Zr   0.40626   0.95472   0.26912   1.000
    Zr29    Zr   0.90627   0.95473   0.26910   1.000
    Zr30    Zr   0.29102   0.87192   0.16257   1.000
    Zr31    Zr   0.79102   0.87193   0.16260   1.000
    Zr32    Zr   0.29139   0.76129   0.31272   1.000
    Zr33    Zr   0.79139   0.76128   0.31272   1.000
    Zr34    Zr   0.33549   0.60954   0.18483   1.000
    Zr35    Zr   0.83549   0.60954   0.18483   1.000
    Zr36    Zr   0.34363   0.73131   0.04522   1.000
    Zr37    Zr   0.84364   0.73134   0.04522   1.000
    Zr38    Zr   0.45885   0.83769   0.12822   1.000
    Zr39    Zr   0.95886   0.83769   0.12822   1.000
    Zr40    Zr   0.04132   0.31278   0.76132   1.000
    Zr41    Zr   0.54132   0.31278   0.76130   1.000
    Zr42    Zr   0.08539   0.18501   0.60949   1.000
    Zr43    Zr   0.58539   0.18502   0.60948   1.000
    Zr44    Zr   0.09372   0.04527   0.73088   1.000
    Zr45    Zr   0.59374   0.04527   0.73083   1.000
    Zr46    Zr   0.20896   0.12808   0.83740   1.000
    Zr47    Zr   0.70895   0.12809   0.83746   1.000
    Zr48    Zr   0.20859   0.23871   0.68728   1.000
    Zr49    Zr   0.70859   0.23871   0.68728   1.000
    Zr50    Zr   0.16449   0.39046   0.81520   1.000
    Zr51    Zr   0.66449   0.39046   0.81519   1.000
    Zr52    Zr   0.15635   0.26864   0.95478   1.000
    Zr53    Zr   0.65635   0.26869   0.95478   1.000
    Zr54    Zr   0.04112   0.16232   0.87179   1.000
    Zr55    Zr   0.54114   0.16230   0.87178   1.000
    O56     O    0.37429   0.76063   0.04718   1.000
    O57     O    0.32054   0.73002   0.10510   1.000
    O58     O    0.87430   0.76064   0.04718   1.000
    O59     O    0.82054   0.73003   0.10510   1.000
    O60     O    0.43190   0.81381   0.08868   1.000
    O61     O    0.93191   0.81382   0.08868   1.000
    O62     O    0.95567   0.83632   0.19978   1.000
    O63     O    0.45566   0.83632   0.19978   1.000
    O64     O    0.29423   0.80032   0.16378   1.000
    O65     O    0.31797   0.91142   0.18644   1.000
    O66     O    0.79423   0.80032   0.16379   1.000
    O67     O    0.81797   0.91143   0.18649   1.000
    O68     O    0.81646   0.66913   0.17491   1.000
    O69     O    0.79441   0.74500   0.23885   1.000
    O70     O    0.31646   0.66913   0.17491   1.000
    O71     O    0.29441   0.74500   0.23885   1.000
    O72     O    0.36914   0.61012   0.19887   1.000
    O73     O    0.86914   0.61012   0.19886   1.000
    O74     O    0.37559   0.95282   0.23971   1.000
    O75     O    0.87560   0.95283   0.23974   1.000
    O76     O    0.93073   0.64896   0.22579   1.000
    O77     O    0.43073   0.64896   0.22579   1.000
    O78     O    0.45557   0.76108   0.25501   1.000
    O79     O    0.95557   0.76108   0.25501   1.000
    O80     O    0.92938   0.89484   0.27022   1.000
    O81     O    0.42937   0.89483   0.27023   1.000
    O82     O    0.93354   0.82498   0.33093   1.000
    O83     O    0.43353   0.82498   0.33093   1.000
    O84     O    0.31935   0.77419   0.35101   1.000
    O85     O    0.81935   0.77420   0.35101   1.000
    O86     O    0.88095   0.80106   0.38991   1.000
    O87     O    0.38095   0.80105   0.38991   1.000
    O88     O    0.61903   0.19899   0.61010   1.000
    O89     O    0.56644   0.17503   0.66908   1.000
    O90     O    0.11903   0.19898   0.61011   1.000
    O91     O    0.06644   0.17503   0.66908   1.000
    O92     O    0.68063   0.22583   0.64900   1.000
    O93     O    0.18063   0.22583   0.64900   1.000
    O94     O    0.70556   0.25499   0.76114   1.000
    O95     O    0.20556   0.25499   0.76115   1.000
    O96     O    0.57062   0.10516   0.72975   1.000
    O97     O    0.54441   0.23892   0.74499   1.000
    O98     O    0.54432   0.16367   0.80023   1.000
    O99     O    0.07060   0.10516   0.72978   1.000
    O100    O    0.04440   0.23891   0.74500   1.000
    O101    O    0.04430   0.16368   0.80023   1.000
    O102    O    0.62440   0.04718   0.76023   1.000
    O103    O    0.12439   0.04718   0.76025   1.000
    O104    O    0.56925   0.35104   0.77422   1.000
    O105    O    0.06925   0.35104   0.77424   1.000
    O106    O    0.63084   0.38988   0.80117   1.000
    O107    O    0.13083   0.38988   0.80118   1.000
    O108    O    0.18202   0.08858   0.81351   1.000
    O109    O    0.68201   0.08859   0.81355   1.000
    O110    O    0.68351   0.33087   0.82510   1.000
    O111    O    0.18351   0.33086   0.82511   1.000
    O112    O    0.70574   0.19969   0.83623   1.000
    O113    O    0.67944   0.26998   0.89489   1.000
    O114    O    0.20575   0.19968   0.83621   1.000
    O115    O    0.17944   0.26996   0.89490   1.000
    O116    O    0.56809   0.18618   0.91133   1.000
    O117    O    0.06807   0.18619   0.91134   1.000
    O118    O    0.12569   0.23935   0.95283   1.000
    O119    O    0.62569   0.23937   0.95283   1.000
    O120    O    0.37496   0.78183   0.21816   1.000
    O121    O    0.87496   0.78183   0.21816   1.000
    O122    O    0.12501   0.21816   0.78185   1.000
    O123    O    0.62502   0.21816   0.78184   1.000
    N124    N    0.37970   0.27613   0.18818   1.000
    O125    O    0.39429   0.41891   0.20113   1.000
    O126    O    0.36011   0.13756   0.19538   1.000
    N127    N    0.49999   0.49999   0.99991   1.000
    O128    O    0.37847   0.40656   0.93454   1.000
    O129    O    0.62151   0.59342   0.06536   1.000
    N130    N    0.62961   0.18804   0.27611   1.000
    O131    O    0.61011   0.19519   0.13752   1.000
    O132    O    0.64417   0.20105   0.41892   1.000
    N133    N    0.74999   0.99990   0.49998   1.000
    O134    O    0.62845   0.93445   0.40656   1.000
    O135    O    0.87153   0.06543   0.59341   1.000
    N136    N    0.99999   0.49999   0.99992   1.000
    O137    O    0.87847   0.40656   0.93454   1.000
    O138    O    0.12151   0.59342   0.06536   1.000
    N139    N    0.12030   0.72388   0.81183   1.000
    O140    O    0.13989   0.86244   0.80460   1.000
    O141    O    0.10570   0.58110   0.79890   1.000
    N142    N    0.24999   0.99993   0.49999   1.000
    O143    O    0.37153   0.06545   0.59342   1.000
    O144    O    0.12845   0.93447   0.40657   1.000
    N145    N    0.87040   0.81198   0.72389   1.000
    O146    O    0.88990   0.80482   0.86249   1.000
    O147    O    0.85583   0.79899   0.58109   1.000
    N148    N    0.12961   0.18803   0.27609   1.000
    O149    O    0.14417   0.20104   0.41891   1.000
    O150    O    0.11010   0.19518   0.13751   1.000
    N151    N    0.87971   0.27614   0.18818   1.000
    O152    O    0.89429   0.41892   0.20113   1.000
    O153    O    0.86011   0.13757   0.19540   1.000
    N154    N    0.62030   0.72388   0.81182   1.000
    O155    O    0.63989   0.86245   0.80460   1.000
    O156    O    0.60570   0.58110   0.79889   1.000
    N157    N    0.37040   0.81197   0.72390   1.000
    O158    O    0.38989   0.80481   0.86249   1.000
    O159    O    0.35582   0.79898   0.58110   1.000
loop_
    _geom_bond_atom_site_label_1
    _geom_bond_atom_site_label_2
    _geom_bond_distance
    _geom_bond_site_symmetry_2
    _ccdc_geom_bond_type
    Zr36   O56       0.63931      .   S
    Zr14   O56       0.63931      .   S
    Zr36   O57       1.05644      .   S
    Zr2    O57       1.05644      .   S
    Zr37   O58       0.63930      .   S
    Zr15   O58       0.63930      .   S
    Zr37   O59       1.05647      .   S
    Zr3    O59       1.05647      .   S
    Zr14   O60       0.63927      .   S
    Zr38   O60       0.63927      .   S
    Zr15   O61       0.63928      .   S
    Zr39   O61       0.63928      .   S
    Zr39   O62       1.04079      .   S
    Zr1    O62       1.04079      .   S
    Zr38   O63       1.04078      .   S
    Zr0    O63       1.04078      .   S
    Zr30   O64       1.04044      .   S
    Zr2    O64       1.04044      .   S
    Zr30   O65       0.63922      .   S
    Zr10   O65       0.63922      .   S
    Zr31   O66       1.04045      .   S
    Zr3    O66       1.04045      .   S
    Zr31   O67       0.63931      .   S
    Zr11   O67       0.63931      .   S
    Zr3    O68       1.02662      .   S
    Zr35   O68       1.02662      .   S
    Zr3    O69       1.04635      .   S
    Zr33   O69       1.04635      .   S
    Zr2    O70       1.02661      .   S
    Zr34   O70       1.02661      .   S
    Zr2    O71       1.04635      .   S
    Zr32   O71       1.04635      .   S
    Zr34   O72       0.64107      .   S
    Zr8    O72       0.64107      .   S
    Zr35   O73       0.64107      .   S
    Zr9    O73       0.64107      .   S
    Zr10   O74       0.63954      .   S
    Zr28   O74       0.63954      .   S
    Zr11   O75       0.63932      .   S
    Zr29   O75       0.63932      .   S
    Zr9    O76       0.63538      .   S
    Zr25   O76       0.63538      .   S
    Zr8    O77       0.63538      .   S
    Zr24   O77       0.63538      .   S
    Zr24   O78       1.04616      .   S
    Zr0    O78       1.04616      .   S
    Zr25   O79       1.04614      .   S
    Zr1    O79       1.04614      .   S
    Zr29   O80       1.05528      .   S
    Zr1    O80       1.05528      .   S
    Zr28   O81       1.05531      .   S
    Zr0    O81       1.05531      .   S
    Zr1    O82       1.02713      .   S
    Zr27   O82       1.02713      .   S
    Zr0    O83       1.02709      .   S
    Zr26   O83       1.02709      .   S
    Zr32   O84       0.63545      .   S
    Zr12   O84       0.63545      .   S
    Zr33   O85       0.63544      .   S
    Zr13   O85       0.63544      .   S
    Zr13   O86       0.64097      .   S
    Zr27   O86       0.64097      .   S
    Zr12   O87       0.64099      .   S
    Zr26   O87       0.64099      .   S
    Zr43   O88       0.64101      .   S
    Zr21   O88       0.64101      .   S
    Zr43   O89       1.02716      .   S
    Zr5    O89       1.02716      .   S
    Zr42   O90       0.64101      .   S
    Zr20   O90       0.64101      .   S
    Zr42   O91       1.02714      .   S
    Zr4    O91       1.02714      .   S
    Zr21   O92       0.63542      .   S
    Zr49   O92       0.63542      .   S
    Zr20   O93       0.63541      .   S
    Zr48   O93       0.63541      .   S
    Zr49   O94       1.04623      .   S
    Zr7    O94       1.04623      .   S
    Zr48   O95       1.04636      .   S
    Zr6    O95       1.04636      .   S
    Zr5    O96       1.05540      .   S
    Zr45   O96       1.05540      .   S
    Zr5    O97       1.04622      .   S
    Zr41   O97       1.04622      .   S
    Zr5    O98       1.04074      .   S
    Zr55   O98       1.04074      .   S
    Zr4    O99       1.05536      .   S
    Zr44   O99       1.05536      .   S
    Zr4    O100      1.04619      .   S
    Zr40   O100      1.04619      .   S
    Zr4    O101      1.04082      .   S
    Zr54   O101      1.04082      .   S
    Zr45   O102      0.63934      .   S
    Zr19   O102      0.63934      .   S
    Zr44   O103      0.63935      .   S
    Zr18   O103      0.63935      .   S
    Zr41   O104      0.63539      .   S
    Zr17   O104      0.63539      .   S
    Zr40   O105      0.63540      .   S
    Zr16   O105      0.63540      .   S
    Zr17   O106      0.64104      .   S
    Zr51   O106      0.64104      .   S
    Zr16   O107      0.64105      .   S
    Zr50   O107      0.64105      .   S
    Zr18   O108      0.63925      .   S
    Zr46   O108      0.63925      .   S
    Zr19   O109      0.63928      .   S
    Zr47   O109      0.63928      .   S
    Zr51   O110      1.02652      .   S
    Zr7    O110      1.02652      .   S
    Zr50   O111      1.02655      .   S
    Zr6    O111      1.02655      .   S
    Zr7    O112      1.04043      .   S
    Zr47   O112      1.04043      .   S
    Zr7    O113      1.05649      .   S
    Zr53   O113      1.05649      .   S
    Zr6    O114      1.04039      .   S
    Zr46   O114      1.04039      .   S
    Zr6    O115      1.05638      .   S
    Zr52   O115      1.05638      .   S
    Zr55   O116      0.63933      .   S
    Zr23   O116      0.63933      .   S
    Zr54   O117      0.63931      .   S
    Zr22   O117      0.63931      .   S
    Zr22   O118      0.63928      .   S
    Zr52   O118      0.63928      .   S
    Zr23   O119      0.63929      .   S
    Zr53   O119      0.63929      .   S
    Zr0    O120      1.46486      .   S
    Zr2    O120      1.46486      .   S
    Zr1    O121      1.46490      .   S
    Zr3    O121      1.46490      .   S
    Zr4    O122      1.46491      .   S
    Zr6    O122      1.46491      .   S
    Zr5    O123      1.46481      .   S
    Zr7    O123      1.46481      .   S
    N124   O125      1.95003      .   S
    Zr8    O125      2.66602      .   S
    N124   O126      1.95460      .   S
    Zr10   O126      2.66992  1_565   S
    N127   O128      2.30058      .   S
    Zr6    O128      3.33432      .   S
    N127   O129      2.30060  1_556   S
    Zr3    O129      3.33434      .   S
    N130   O131      1.95465      .   S
    Zr23   O131      2.67017  1_556   S
    N130   O132      1.95056      .   S
    Zr21   O132      2.66670      .   S
    N133   O134      2.30020      .   S
    Zr0    O134      3.33366      .   S
    N133   O135      2.30019  1_565   S
    Zr4    O135      3.33355  1_455   S
    N136   O137      2.30056      .   S
    Zr7    O137      3.33432      .   S
    N136   O138      2.30056  1_656   S
    Zr2    O138      3.33431      .   S
    N139   O140      1.95463      .   S
    Zr18   O140      2.67012  1_545   S
    N139   O141      1.95010      .   S
    Zr16   O141      2.66612      .   S
    N142   O143      2.30023  1_565   S
    Zr5    O143      3.33371      .   S
    N142   O144      2.30017      .   S
    Zr1    O144      3.33354  1_655   S
    N145   O146      1.95471      .   S
    Zr15   O146      2.67021  1_554   S
    N145   O147      1.95055      .   S
    Zr13   O147      2.66669      .   S
    N148   O149      1.95071      .   S
    Zr20   O149      2.66684      .   S
    N148   O150      1.95450      .   S
    Zr22   O150      2.67002  1_556   S
    N151   O152      1.95002      .   S
    Zr9    O152      2.66601      .   S
    N151   O153      1.95468      .   S
    Zr11   O153      2.67016  1_565   S
    N154   O155      1.95459      .   S
    Zr19   O155      2.67005  1_545   S
    N154   O156      1.95013      .   S
    Zr17   O156      2.66615      .   S
    N157   O158      1.95469      .   S
    Zr14   O158      2.67019  1_554   S
    N157   O159      1.95057      .   S
    Zr12   O159      2.66671      .   S
