# CIF file generated by openbabel 2.4.90, see http://openbabel.sf.net
data_I
_chemical_name_common ''
_cell_length_a 13.701
_cell_length_b 13.846
_cell_length_c 14.057
_cell_angle_alpha 108.95
_cell_angle_beta 90.087
_cell_angle_gamma 89.967
_space_group_name_H-M_alt 'P 1'
_space_group_name_Hall 'P 1'
loop_
    _symmetry_equiv_pos_as_xyz
    x,y,z
loop_
    _atom_site_label
    _atom_site_type_symbol
    _atom_site_fract_x
    _atom_site_fract_y
    _atom_site_fract_z
    _atom_site_occupancy
    H0      H    0.24178   0.68673   0.05042   1.000
    H1      H    0.16873   0.86337   0.11701   1.000
    H2      H    0.45705   0.97426   0.22464   1.000
    H3      H    0.51555   0.79481   0.15892   1.000
    H4      H    0.42131   0.22985   0.11397   1.000
    H5      H    0.27245   0.50962   0.26790   1.000
    H6      H    0.18906   0.23202   0.32236   1.000
    H7      H    0.38821   0.08691   0.15875   1.000
    H8      H    0.74164   0.31765   0.44990   1.000
    H9      H    0.66839   0.14100   0.38450   1.000
    H10     H    0.95593   0.02952   0.27533   1.000
    H11     H    0.01468   0.20903   0.33995   1.000
    H12     H    0.92130   0.77424   0.38711   1.000
    H13     H    0.77257   0.49451   0.23253   1.000
    H14     H    0.68850   0.77236   0.17873   1.000
    H15     H    0.88769   0.91745   0.34261   1.000
    H16     H    0.75802   0.31655   0.95012   1.000
    H17     H    0.83087   0.13973   0.88430   1.000
    H18     H    0.54241   0.02887   0.77714   1.000
    H19     H    0.48410   0.20841   0.84222   1.000
    H20     H    0.57858   0.77239   0.88640   1.000
    H21     H    0.72875   0.49353   0.73230   1.000
    H22     H    0.81082   0.77179   0.67840   1.000
    H23     H    0.61124   0.91583   0.84198   1.000
    H24     H    0.25879   0.68586   0.55068   1.000
    H25     H    0.33206   0.86247   0.61641   1.000
    H26     H    0.04462   0.97375   0.72615   1.000
    H27     H    0.98584   0.79426   0.66110   1.000
    H28     H    0.07895   0.22866   0.61323   1.000
    H29     H    0.22708   0.50881   0.76772   1.000
    H30     H    0.31131   0.23140   0.82230   1.000
    H31     H    0.11230   0.08582   0.65852   1.000
    C32     C    0.28576   0.75322   0.09025   1.000
    C33     C    0.24613   0.85073   0.12614   1.000
    C34     C    0.30726   0.93360   0.17306   1.000
    C35     C    0.40596   0.91401   0.18558   1.000
    C36     C    0.43983   0.81398   0.14951   1.000
    C37     C    0.26365   0.03920   0.20866   1.000
    C38     C    0.30752   0.21836   0.21751   1.000
    C39     C    0.36565   0.26987   0.16777   1.000
    C40     C    0.35232   0.37416   0.18459   1.000
    C41     C    0.28229   0.42820   0.25398   1.000
    C42     C    0.22404   0.37651   0.30327   1.000
    C43     C    0.23552   0.27146   0.28455   1.000
    C44     C    0.41142   0.42491   0.12404   1.000
    C45     C    0.14645   0.43129   0.37630   1.000
    C46     C    0.78536   0.25104   0.40995   1.000
    C47     C    0.74566   0.15353   0.37477   1.000
    C48     C    0.80657   0.07057   0.32769   1.000
    C49     C    0.90511   0.08995   0.31446   1.000
    C50     C    0.93905   0.18997   0.34985   1.000
    C51     C    0.76298   0.96501   0.29240   1.000
    C52     C    0.80716   0.78588   0.28362   1.000
    C53     C    0.86557   0.73428   0.33321   1.000
    C54     C    0.85241   0.62994   0.31606   1.000
    C55     C    0.78230   0.57595   0.24659   1.000
    C56     C    0.72383   0.62770   0.19739   1.000
    C57     C    0.73511   0.73281   0.21642   1.000
    C58     C    0.91172   0.57891   0.37630   1.000
    C59     C    0.64619   0.57279   0.12429   1.000
    C60     C    0.71399   0.25001   0.91058   1.000
    C61     C    0.75349   0.15242   0.87510   1.000
    C62     C    0.69228   0.06957   0.82843   1.000
    C63     C    0.59357   0.08914   0.81596   1.000
    C64     C    0.55982   0.18923   0.85160   1.000
    C65     C    0.73595   0.96404   0.79276   1.000
    C66     C    0.69239   0.78468   0.78319   1.000
    C67     C    0.63446   0.73276   0.83268   1.000
    C68     C    0.64831   0.62852   0.81569   1.000
    C69     C    0.71851   0.57491   0.74632   1.000
    C70     C    0.77641   0.62699   0.69715   1.000
    C71     C    0.76454   0.73202   0.71610   1.000
    C72     C    0.58964   0.57725   0.87602   1.000
    C73     C    0.85388   0.57251   0.62390   1.000
    C74     C    0.21508   0.75242   0.59080   1.000
    C75     C    0.25480   0.84993   0.62619   1.000
    C76     C    0.19389   0.93286   0.67340   1.000
    C77     C    0.09541   0.91338   0.68600   1.000
    C78     C    0.06145   0.81338   0.65117   1.000
    C79     C    0.23730   0.03852   0.70840   1.000
    C80     C    0.19282   0.21750   0.71710   1.000
    C81     C    0.13451   0.26884   0.66724   1.000
    C82     C    0.14754   0.37318   0.68421   1.000
    C83     C    0.21748   0.42737   0.75379   1.000
    C84     C    0.27597   0.37586   0.80322   1.000
    C85     C    0.26473   0.27078   0.78445   1.000
    C86     C    0.08836   0.42396   0.62360   1.000
    C87     C    0.35360   0.43096   0.87627   1.000
    N88     N    0.38119   0.73501   0.10143   1.000
    N89     N    0.32561   0.11301   0.19768   1.000
    N90     N    0.88063   0.26905   0.39801   1.000
    N91     N    0.82501   0.89129   0.30370   1.000
    N92     N    0.61860   0.26823   0.89920   1.000
    N93     N    0.67401   0.89000   0.80326   1.000
    N94     N    0.11981   0.73436   0.60268   1.000
    N95     N    0.17500   0.11211   0.69735   1.000
    O96     O    0.17994   0.05442   0.24261   1.000
    O97     O    0.47978   0.37204   0.07089   1.000
    O98     O    0.38698   0.51522   0.12914   1.000
    O99     O    0.16225   0.52366   0.42930   1.000
    O100    O    0.07072   0.37911   0.37923   1.000
    O101    O    0.67924   0.94969   0.25834   1.000
    O102    O    0.98045   0.63146   0.42930   1.000
    O103    O    0.88703   0.48869   0.37116   1.000
    O104    O    0.66185   0.48028   0.07165   1.000
    O105    O    0.57060   0.62507   0.12088   1.000
    O106    O    0.81975   0.94905   0.75899   1.000
    O107    O    0.52029   0.62915   0.92828   1.000
    O108    O    0.61539   0.48747   0.87153   1.000
    O109    O    0.83815   0.48011   0.57085   1.000
    O110    O    0.92945   0.62485   0.62080   1.000
    O111    O    0.32113   0.05413   0.74220   1.000
    O112    O    0.01979   0.37126   0.57050   1.000
    O113    O    0.11291   0.51422   0.62875   1.000
    O114    O    0.33762   0.52328   0.92931   1.000
    O115    O    0.42963   0.37907   0.87900   1.000
loop_
    _geom_bond_atom_site_label_1
    _geom_bond_atom_site_label_2
    _geom_bond_distance
    _geom_bond_site_symmetry_2
    _ccdc_geom_bond_type
    H0     C32       1.09031      .   S
    O97    C44       1.27180      .   S
    O104   C59       1.27237      .   S
    C32    N88       1.35007      .   S
    C32    C33       1.38921      .   S
    N88    C36       1.34815      .   S
    H4     C39       1.09074      .   S
    H1     C33       1.08893      .   S
    O105   C59       1.27304      .   S
    C44    O98       1.27369      .   S
    C44    C40       1.50498      .   S
    C59    C56       1.50181      .   S
    C33    C34       1.40028      .   S
    C36    H3        1.08917      .   S
    C36    C35       1.39090      .   S
    H7     N89       1.01898      .   S
    C39    C40       1.39733      .   S
    C39    C38       1.39925      .   S
    C34    C35       1.40115      .   S
    C34    C37       1.50658  1_565   S
    H14    C57       1.08415      .   S
    C40    C41       1.39995      .   S
    C35    H2        1.09053      .   S
    C56    C57       1.40028      .   S
    C56    C55       1.39747      .   S
    N89    C37       1.37571      .   S
    N89    C38       1.41520      .   S
    C37    O96       1.23444      .   S
    C57    C52       1.39785      .   S
    C38    C43       1.39775      .   S
    H13    C55       1.08804      .   S
    C55    C54       1.39964      .   S
    C41    H5        1.08811      .   S
    C41    C42       1.39779      .   S
    O101   C51       1.23414      .   S
    H10    C49       1.09049      .   S
    C52    N91       1.41507      .   S
    C52    C53       1.39919      .   S
    C43    C42       1.40031      .   S
    C43    H6        1.08424      .   S
    C51    N91       1.37594      .   S
    C51    C48       1.50612  1_565   S
    C42    C45       1.50197      .   S
    N91    H15       1.01897      .   S
    C49    C48       1.40107      .   S
    C49    C50       1.39078      .   S
    C54    C53       1.39715      .   S
    C54    C58       1.50404      .   S
    C48    C47       1.40022      .   S
    C53    H12       1.09072      .   S
    H11    C50       1.08960  1_455   S
    C50    N90       1.34794      .   S
    O103   C58       1.27355      .   S
    C47    H9        1.08887      .   S
    C47    C46       1.38911      .   S
    C58    O102      1.27190      .   S
    C45    O100      1.27294      .   S
    C45    O99       1.27223      .   S
    N90    C46       1.34994      .   S
    C46    H8        1.09034      .   S
    H24    C74       1.09037      .   S
    O112   C86       1.27165      .   S
    O109   C73       1.27253      .   S
    C74    N94       1.35004      .   S
    C74    C75       1.38929      .   S
    N94    C78       1.34802      .   S
    H28    C81       1.09074      .   S
    H25    C75       1.08895      .   S
    O110   C73       1.27307      .   S
    C86    O113      1.27344      .   S
    C86    C82       1.50465      .   S
    C73    C70       1.50132      .   S
    C75    C76       1.40028      .   S
    C78    H27       1.08961  1_455   S
    C78    C77       1.39038      .   S
    H31    N95       1.01896      .   S
    C81    C82       1.39720      .   S
    C81    C80       1.39861      .   S
    C76    C77       1.39892      .   S
    C76    C79       1.50628  1_565   S
    H22    C71       1.08494      .   S
    C82    C83       1.39978      .   S
    C77    H26       1.09342      .   S
    C70    C71       1.40016      .   S
    C70    C69       1.39743      .   S
    N95    C79       1.37554      .   S
    N95    C80       1.41536      .   S
    C79    O111      1.23433      .   S
    C71    C66       1.39778      .   S
    C80    C85       1.39846      .   S
    H21    C69       1.08809      .   S
    C69    C68       1.39966      .   S
    C83    H29       1.08803      .   S
    C83    C84       1.39757      .   S
    O106   C65       1.23450      .   S
    H18    C63       1.09052      .   S
    C66    N93       1.41505      .   S
    C66    C67       1.39920      .   S
    C85    C84       1.40034      .   S
    C85    H30       1.08379      .   S
    C65    N93       1.37565      .   S
    C65    C62       1.50613  1_565   S
    C84    C87       1.50213      .   S
    N93    H23       1.01894      .   S
    C68    C67       1.39722      .   S
    C68    C72       1.50426      .   S
    C63    C62       1.40112      .   S
    C63    C64       1.39084      .   S
    C62    C61       1.40013      .   S
    C67    H20       1.09072      .   S
    H19    C64       1.08904      .   S
    C64    N92       1.34791      .   S
    O108   C72       1.27367      .   S
    C61    H17       1.08897      .   S
    C61    C60       1.38907      .   S
    C72    O107      1.27182      .   S
    C87    O115      1.27270      .   S
    C87    O114      1.27232      .   S
    N92    C60       1.35002      .   S
    C60    H16       1.09031      .   S
