# CIF file generated by openbabel 2.4.90, see http://openbabel.sf.net
data_I
_chemical_name_common ''
_cell_length_a 13.701
_cell_length_b 13.846
_cell_length_c 14.057
_cell_angle_alpha 108.95
_cell_angle_beta 90.087
_cell_angle_gamma 89.967
_space_group_name_H-M_alt 'P 1'
_space_group_name_Hall 'P 1'
loop_
    _symmetry_equiv_pos_as_xyz
    x,y,z
loop_
    _atom_site_label
    _atom_site_type_symbol
    _atom_site_fract_x
    _atom_site_fract_y
    _atom_site_fract_z
    _atom_site_occupancy
    Zr0     Zr   0.55820   0.41204   0.96295   1.000
    Zr1     Zr   0.05823   0.59139   0.53748   1.000
    Zr2     Zr   0.44189   0.59141   0.03733   1.000
    Zr3     Zr   0.94194   0.41220   0.46270   1.000
    O4      O    0.50005   0.50172   0.00014   1.000
    O5      O    0.00009   0.50179   0.50009   1.000
    N6      N    0.30739   0.14378   0.20033   1.000
    O7      O    0.20882   0.35065   0.34186   1.000
    O8      O    0.35947   0.90349   0.13485   1.000
    O9      O    0.36091   0.34855   0.14178   1.000
    O10     O    0.15686   0.26972   0.31065   1.000
    O11     O    0.41319   0.26791   0.10862   1.000
    N12     N    0.80705   0.86033   0.30023   1.000
    O13     O    0.65665   0.73429   0.18967   1.000
    O14     O    0.91320   0.73588   0.39181   1.000
    O15     O    0.86077   0.65539   0.35858   1.000
    O16     O    0.70854   0.65325   0.15877   1.000
    O17     O    0.85917   0.10048   0.36529   1.000
    N18     N    0.69268   0.85931   0.80039   1.000
    O19     O    0.63973   0.65453   0.85881   1.000
    O20     O    0.84326   0.73371   0.68976   1.000
    O21     O    0.79136   0.65273   0.65858   1.000
    O22     O    0.58688   0.73480   0.89160   1.000
    O23     O    0.64054   0.09972   0.86573   1.000
    N24     N    0.19310   0.14305   0.70040   1.000
    O25     O    0.29143   0.35020   0.84186   1.000
    O26     O    0.34350   0.26930   0.81069   1.000
    O27     O    0.13933   0.34792   0.64176   1.000
    O28     O    0.08698   0.26739   0.60850   1.000
    O29     O    0.14106   0.90296   0.63524   1.000
loop_
    _geom_bond_atom_site_label_1
    _geom_bond_atom_site_label_2
    _geom_bond_distance
    _geom_bond_site_symmetry_2
    _ccdc_geom_bond_type
    Zr0    O4        1.42427  1_556   S
    Zr2    O4        1.42427      .   S
    Zr1    O5        1.42343      .   S
    Zr3    O5        1.42343  1_655   S
    N6     O7        3.20769      .   S
    Zr1    O7        4.12127      .   S
    N6     O8        3.23040  1_545   S
    Zr2    O8        4.24011      .   S
    N6     O9        3.28225      .   S
    Zr2    O9        4.23205      .   S
    N6     O10       2.81929      .   S
    Zr3    O10       3.79545  1_655   S
    N6     O11       2.85734      .   S
    Zr0    O11       3.84625  1_556   S
    N12    O13       2.81788      .   S
    Zr2    O13       3.79380      .   S
    N12    O14       2.85899      .   S
    Zr1    O14       3.84552  1_455   S
    N12    O15       3.28237      .   S
    Zr3    O15       4.23183      .   S
    N12    O16       3.20793      .   S
    Zr0    O16       4.12233  1_556   S
    N12    O17       3.22925  1_565   S
    Zr3    O17       4.23703      .   S
    N18    O19       3.27971      .   S
    Zr0    O19       4.22679      .   S
    N18    O20       2.81924      .   S
    Zr1    O20       3.79653  1_455   S
    N18    O21       3.20676      .   S
    Zr3    O21       4.12105      .   S
    N18    O22       2.85679      .   S
    Zr2    O22       3.83966  1_554   S
    N18    O23       3.23234  1_565   S
    Zr0    O23       4.24274      .   S
    N24    O25       3.20742      .   S
    Zr2    O25       4.12125  1_554   S
    N24    O26       2.81784      .   S
    Zr0    O26       3.79202      .   S
    N24    O27       3.28385      .   S
    Zr1    O27       4.23637      .   S
    N24    O28       2.86054      .   S
    Zr3    O28       3.84994  1_655   S
    N24    O29       3.22817  1_545   S
    Zr1    O29       4.23532      .   S
