# CIF file generated by openbabel 2.4.90, see http://openbabel.sf.net
data_I
_chemical_name_common ''
_cell_length_a 10.063
_cell_length_b 17.5475
_cell_length_c 20.135
_cell_angle_alpha 76.8877
_cell_angle_beta 85.078
_cell_angle_gamma 76.9058
_space_group_name_H-M_alt 'P 1'
_space_group_name_Hall 'P 1'
loop_
    _symmetry_equiv_pos_as_xyz
    x,y,z
loop_
    _atom_site_label
    _atom_site_type_symbol
    _atom_site_fract_x
    _atom_site_fract_y
    _atom_site_fract_z
    _atom_site_occupancy
    Lv0     Lv   0.93946   0.20544   0.33897   1.000
    Lv1     Lv   0.93944   0.20543   0.83898   1.000
    Lv2     Lv   0.06055   0.79458   0.66100   1.000
    Lv3     Lv   0.67704   0.70511   0.97316   1.000
    Lv4     Lv   0.32295   0.29491   0.02936   1.000
    Lv5     Lv   0.06056   0.79458   0.16099   1.000
    Lv6     Lv   0.32295   0.29491   0.52936   1.000
    Lv7     Lv   0.67704   0.70511   0.47062   1.000
