# CIF file generated by openbabel 2.4.90, see http://openbabel.sf.net
data_I
_chemical_name_common ''
_cell_length_a 10.063
_cell_length_b 17.5475
_cell_length_c 20.135
_cell_angle_alpha 76.8877
_cell_angle_beta 85.078
_cell_angle_gamma 76.9058
_space_group_name_H-M_alt 'P 1'
_space_group_name_Hall 'P 1'
loop_
    _symmetry_equiv_pos_as_xyz
    x,y,z
loop_
    _atom_site_label
    _atom_site_type_symbol
    _atom_site_fract_x
    _atom_site_fract_y
    _atom_site_fract_z
    _atom_site_occupancy
    C0      C    0.78320   0.88354   0.63527   1.000
    C1      C    0.78322   0.88354   0.13526   1.000
    C2      C    0.28446   0.87757   0.63587   1.000
    C3      C    0.28448   0.87757   0.13586   1.000
    C4      C    0.11712   0.62271   0.71355   1.000
    C5      C    0.11714   0.62271   0.21355   1.000
    C6      C    0.72793   0.61650   0.60939   1.000
    C7      C    0.72794   0.61650   0.10938   1.000
    C8      C    0.72980   0.62211   0.85874   1.000
    C9      C    0.72983   0.62211   0.35873   1.000
    C10     C    0.57125   0.87693   0.94195   1.000
    C11     C    0.57126   0.87693   0.44194   1.000
    C12     C    0.21678   0.11648   0.86472   1.000
    C13     C    0.21680   0.11647   0.36471   1.000
    C14     C    0.71553   0.12246   0.86411   1.000
    C15     C    0.71554   0.12246   0.36411   1.000
    C16     C    0.88286   0.37731   0.78642   1.000
    C17     C    0.88288   0.37731   0.28640   1.000
    C18     C    0.27203   0.38351   0.89060   1.000
    C19     C    0.27206   0.38352   0.39059   1.000
    C20     C    0.27018   0.37792   0.64125   1.000
    C21     C    0.27018   0.37792   0.14124   1.000
    C22     C    0.42874   0.12310   0.55805   1.000
    C23     C    0.42872   0.12310   0.05804   1.000
    O24     O    0.68388   0.84749   0.66109   1.000
    O25     O    0.68390   0.84749   0.16108   1.000
    O26     O    0.75783   0.95336   0.60007   1.000
    O27     O    0.75784   0.95336   0.10006   1.000
    O28     O    0.40245   0.83816   0.66051   1.000
    O29     O    0.40246   0.83815   0.16050   1.000
    O30     O    0.26929   0.94833   0.60258   1.000
    O31     O    0.26931   0.94833   0.10257   1.000
    O32     O    0.23978   0.58571   0.72240   1.000
    O33     O    0.23980   0.58572   0.22239   1.000
    O34     O    0.01707   0.58587   0.72665   1.000
    O35     O    0.01709   0.58587   0.22664   1.000
    O36     O    0.67734   0.65294   0.65891   1.000
    O37     O    0.67735   0.65294   0.15889   1.000
    O38     O    0.79762   0.54650   0.62222   1.000
    O39     O    0.79763   0.54651   0.12220   1.000
    O40     O    0.68210   0.66177   0.79948   1.000
    O41     O    0.68212   0.66177   0.29947   1.000
    O42     O    0.79586   0.55124   0.86649   1.000
    O43     O    0.79589   0.55125   0.36648   1.000
    O44     O    0.55293   0.91366   0.88060   1.000
    O45     O    0.55295   0.91366   0.38059   1.000
    O46     O    0.54580   0.91405   0.49174   1.000
    O47     O    0.54582   0.91405   0.00000   1.000
    O48     O    0.31611   0.15252   0.83890   1.000
    O49     O    0.31613   0.15252   0.33889   1.000
    O50     O    0.24216   0.04666   0.89992   1.000
    O51     O    0.24217   0.04666   0.39991   1.000
    O52     O    0.59754   0.16187   0.83947   1.000
    O53     O    0.59756   0.16187   0.33946   1.000
    O54     O    0.73069   0.05170   0.89742   1.000
    O55     O    0.73070   0.05170   0.39741   1.000
    O56     O    0.76020   0.41430   0.77758   1.000
    O57     O    0.76022   0.41431   0.27757   1.000
    O58     O    0.98291   0.41415   0.77332   1.000
    O59     O    0.98293   0.41415   0.27331   1.000
    O60     O    0.32260   0.34706   0.84109   1.000
    O61     O    0.32263   0.34706   0.34107   1.000
    O62     O    0.20239   0.45352   0.87777   1.000
    O63     O    0.20240   0.45352   0.37776   1.000
    O64     O    0.31789   0.33826   0.70051   1.000
    O65     O    0.31791   0.33826   0.20050   1.000
    O66     O    0.20411   0.44878   0.63349   1.000
    O67     O    0.20414   0.44878   0.13348   1.000
    O68     O    0.44705   0.08637   0.61940   1.000
    O69     O    0.44706   0.08637   0.11939   1.000
    O70     O    0.45419   0.08597   0.00825   1.000
    O71     O    0.45419   0.08597   0.50824   1.000
loop_
    _geom_bond_atom_site_label_1
    _geom_bond_atom_site_label_2
    _geom_bond_distance
    _geom_bond_site_symmetry_2
    _ccdc_geom_bond_type
    O47    C10       1.44045  1_554   S
    O70    C23       1.29285      .   S
    C23    O69       1.26463      .   S
    O27    C1        1.25053      .   S
    O31    C3        1.25240      .   S
    C7     O39       1.25052      .   S
    C7     O37       1.31034      .   S
    O67    C21       1.25209      .   S
    C1     O25       1.31049      .   S
    C3     O29       1.30668      .   S
    C21    O65       1.30725      .   S
    C5     O33       1.26445      .   S
    C5     O35       1.29351      .   S
    O59    C17       1.29349      .   S
    O57    C17       1.26447      .   S
    O41    C9        1.30724      .   S
    O49    C13       1.31049      .   S
    O53    C15       1.30666      .   S
    O61    C19       1.31035      .   S
    C9     O43       1.25208      .   S
    C15    O55       1.25240      .   S
    C13    O51       1.25050      .   S
    O63    C19       1.25052      .   S
    O45    C11       1.26464      .   S
    C11    O46       1.29326      .   S
    O71    C22       1.29325      .   S
    C22    O68       1.26463      .   S
    O26    C0        1.25051      .   S
    O30    C2        1.25240      .   S
    C6     O38       1.25053      .   S
    C6     O36       1.31034      .   S
    O66    C20       1.25209      .   S
    C0     O24       1.31049      .   S
    C2     O28       1.30668      .   S
    C20    O64       1.30724      .   S
    C4     O32       1.26447      .   S
    C4     O34       1.29349      .   S
    O58    C16       1.29349      .   S
    O56    C16       1.26445      .   S
    O40    C8        1.30724      .   S
    O48    C12       1.31049      .   S
    O52    C14       1.30667      .   S
    O60    C18       1.31033      .   S
    C8     O42       1.25210      .   S
    C14    O54       1.25240      .   S
    C12    O50       1.25049      .   S
    O62    C18       1.25051      .   S
    O44    C10       1.26463      .   S
