# CIF file generated by openbabel 2.4.90, see http://openbabel.sf.net
data_I
_chemical_name_common ''
_cell_length_a 10.063
_cell_length_b 17.5475
_cell_length_c 20.135
_cell_angle_alpha 76.8877
_cell_angle_beta 85.078
_cell_angle_gamma 76.9058
_space_group_name_H-M_alt 'P 1'
_space_group_name_Hall 'P 1'
loop_
    _symmetry_equiv_pos_as_xyz
    x,y,z
loop_
    _atom_site_label
    _atom_site_type_symbol
    _atom_site_fract_x
    _atom_site_fract_y
    _atom_site_fract_z
    _atom_site_occupancy
    Zr0     Zr   0.51057   0.95652   0.59347   1.000
    Zr1     Zr   0.51059   0.95652   0.09346   1.000
    Zr2     Zr   0.81314   0.54382   0.74548   1.000
    Zr3     Zr   0.81316   0.54382   0.24547   1.000
    Zr4     Zr   0.48941   0.04351   0.90653   1.000
    Zr5     Zr   0.48943   0.04350   0.40651   1.000
    Zr6     Zr   0.18684   0.45620   0.75450   1.000
    Zr7     Zr   0.18686   0.45620   0.25449   1.000
    Zr8     Zr   0.57826   0.75028   0.71202   1.000
    Zr9     Zr   0.57828   0.75029   0.21202   1.000
    Zr10    Zr   0.42171   0.24973   0.78796   1.000
    Zr11    Zr   0.42173   0.24973   0.28795   1.000
    N12     N    0.93946   0.20544   0.33897   1.000
    N13     N    0.93944   0.20543   0.83898   1.000
    N14     N    0.06055   0.79458   0.66100   1.000
    N15     N    0.67704   0.70511   0.97316   1.000
    N16     N    0.32295   0.29491   0.02936   1.000
    N17     N    0.06056   0.79458   0.16099   1.000
    N18     N    0.32295   0.29491   0.52936   1.000
    N19     N    0.67704   0.70511   0.47062   1.000
    C20     C    0.44333   0.09848   0.56189   1.000
    O21     O    0.45757   0.08161   0.50964   1.000
    O22     O    0.46285   0.05986   0.55638   1.000
    O23     O    0.46107   0.05996   0.58416   1.000
    O24     O    0.40293   0.16484   0.55085   1.000
    C25     C    0.74164   0.89480   0.63214   1.000
    O26     O    0.84966   0.86121   0.64181   1.000
    O27     O    0.68792   0.92487   0.61446   1.000
    O28     O    0.68636   0.84684   0.65935   1.000
    O29     O    0.66943   0.89840   0.62971   1.000
    C30     C    0.26408   0.38832   0.15841   1.000
    O31     O    0.28367   0.35705   0.11462   1.000
    O32     O    0.25823   0.39277   0.19295   1.000
    O33     O    0.31695   0.34116   0.20131   1.000
    O34     O    0.22979   0.42041   0.17620   1.000
    C35     C    0.26569   0.39470   0.36981   1.000
    O36     O    0.28494   0.36127   0.42385   1.000
    O37     O    0.31894   0.34655   0.34216   1.000
    O38     O    0.26022   0.39816   0.33380   1.000
    O39     O    0.23016   0.42478   0.34297   1.000
    C40     C    0.31875   0.88802   0.13298   1.000
    O41     O    0.23117   0.85672   0.14228   1.000
    O42     O    0.35435   0.92022   0.11550   1.000
    O43     O    0.38764   0.89268   0.12998   1.000
    O44     O    0.40456   0.84112   0.15962   1.000
    C45     C    0.12466   0.59810   0.72087   1.000
    O46     O    0.10290   0.66448   0.70075   1.000
    O47     O    0.16898   0.55953   0.72966   1.000
    O48     O    0.01988   0.58147   0.72847   1.000
    O49     O    0.11330   0.55957   0.73072   1.000
    C50     C    0.68125   0.11201   0.86700   1.000
    O51     O    0.76884   0.14330   0.85769   1.000
    O52     O    0.61237   0.10735   0.87000   1.000
    O53     O    0.59544   0.15891   0.84036   1.000
    O54     O    0.64565   0.07981   0.88449   1.000
    C55     C    0.73595   0.61171   0.34156   1.000
    O56     O    0.71635   0.64298   0.38535   1.000
    O57     O    0.74179   0.60725   0.30701   1.000
    O58     O    0.68307   0.65887   0.29865   1.000
    O59     O    0.77024   0.57962   0.32377   1.000
    C60     C    0.25835   0.10522   0.86785   1.000
    O61     O    0.33055   0.10162   0.87028   1.000
    O62     O    0.31363   0.15317   0.84064   1.000
    O63     O    0.15033   0.13880   0.85818   1.000
    O64     O    0.31207   0.07515   0.88553   1.000
    C65     C    0.55667   0.90154   0.94085   1.000
    O66     O    0.59706   0.83518   0.95115   1.000
    O67     O    0.53892   0.94006   0.91721   1.000
    O68     O    0.54243   0.91841   0.99379   1.000
    O69     O    0.53714   0.94016   0.94706   1.000
    C70     C    0.25837   0.10522   0.36784   1.000
    O71     O    0.15035   0.13880   0.35817   1.000
    O72     O    0.31365   0.15317   0.34063   1.000
    O73     O    0.33057   0.10162   0.37027   1.000
    O74     O    0.31208   0.07515   0.38552   1.000
    C75     C    0.55667   0.90155   0.43809   1.000
    O76     O    0.59707   0.83518   0.44914   1.000
    O77     O    0.53893   0.94006   0.41582   1.000
    O78     O    0.54243   0.91842   0.49035   1.000
    O79     O    0.53714   0.94016   0.44361   1.000
    C80     C    0.26406   0.38832   0.65842   1.000
    O81     O    0.28365   0.35705   0.61462   1.000
    O82     O    0.22977   0.42041   0.67621   1.000
    O83     O    0.25821   0.39277   0.69296   1.000
    O84     O    0.31693   0.34116   0.70133   1.000
    C85     C    0.31873   0.88802   0.63298   1.000
    O86     O    0.23115   0.85672   0.64229   1.000
    O87     O    0.35433   0.92022   0.61550   1.000
    O88     O    0.38762   0.89268   0.62999   1.000
    O89     O    0.40454   0.84112   0.65962   1.000
    C90     C    0.73429   0.60531   0.63017   1.000
    O91     O    0.71505   0.63875   0.57613   1.000
    O92     O    0.76984   0.57524   0.65701   1.000
    O93     O    0.68105   0.65346   0.65782   1.000
    O94     O    0.73977   0.60185   0.66618   1.000
    C95     C    0.87532   0.40192   0.77911   1.000
    O96     O    0.83099   0.44049   0.77032   1.000
    O97     O    0.89708   0.33554   0.79922   1.000
    O98     O    0.98010   0.41855   0.77151   1.000
    O99     O    0.88667   0.44045   0.76925   1.000
    C100    C    0.73431   0.60532   0.13016   1.000
    O101    O    0.71506   0.63875   0.07676   1.000
    O102    O    0.76985   0.57524   0.15700   1.000
    O103    O    0.68106   0.65346   0.15781   1.000
    O104    O    0.73978   0.60185   0.16617   1.000
    C105    C    0.74165   0.89480   0.13213   1.000
    O106    O    0.84967   0.86121   0.14180   1.000
    O107    O    0.68637   0.84684   0.15934   1.000
    O108    O    0.66945   0.89840   0.12970   1.000
    O109    O    0.68793   0.92487   0.11445   1.000
    C110    C    0.12468   0.59810   0.22086   1.000
    O111    O    0.01990   0.58147   0.22846   1.000
    O112    O    0.11333   0.55957   0.23071   1.000
    O113    O    0.10292   0.66448   0.20075   1.000
    O114    O    0.16900   0.55953   0.22965   1.000
    C115    C    0.26567   0.39470   0.86982   1.000
    O116    O    0.26019   0.39816   0.83381   1.000
    O117    O    0.31891   0.34655   0.84217   1.000
    O118    O    0.28493   0.36127   0.92386   1.000
    O119    O    0.23014   0.42478   0.84298   1.000
    C120    C    0.44332   0.09848   0.06189   1.000
    O121    O    0.40293   0.16484   0.05084   1.000
    O122    O    0.45756   0.08161   0.00964   1.000
    O123    O    0.46286   0.05986   0.05637   1.000
    O124    O    0.46107   0.05996   0.08416   1.000
    C125    C    0.87534   0.40192   0.27909   1.000
    O126    O    0.83102   0.44049   0.27031   1.000
    O127    O    0.98012   0.41855   0.27150   1.000
    O128    O    0.88669   0.44045   0.26924   1.000
    O129    O    0.89710   0.33554   0.29921   1.000
    C130    C    0.68127   0.11201   0.36699   1.000
    O131    O    0.64567   0.07981   0.38448   1.000
    O132    O    0.76885   0.14330   0.35768   1.000
    O133    O    0.59546   0.15891   0.34035   1.000
    O134    O    0.61238   0.10735   0.36999   1.000
    C135    C    0.73592   0.61171   0.84157   1.000
    O136    O    0.68305   0.65887   0.79866   1.000
    O137    O    0.74177   0.60725   0.80702   1.000
    O138    O    0.77021   0.57962   0.82378   1.000
    O139    O    0.71633   0.64298   0.88600   1.000
loop_
    _geom_bond_atom_site_label_1
    _geom_bond_atom_site_label_2
    _geom_bond_distance
    _geom_bond_site_symmetry_2
    _ccdc_geom_bond_type
    C20    O21       1.14527      .   S
    Zr5    O21       2.29780      .   S
    C20    O22       0.69299      .   S
    Zr0    O22       1.76901  1_565   S
    C20    O23       0.71507      .   S
    Zr0    O23       1.74071  1_565   S
    C20    O24       1.11995      .   S
    N18    O24       2.19624      .   S
    C25    O26       1.12284      .   S
    N14    O26       2.19804  1_455   S
    C25    O27       0.71832      .   S
    Zr0    O27       1.80160      .   S
    C25    O28       1.12620      .   S
    Zr8    O28       2.23621      .   S
    C25    O29       0.71988      .   S
    Zr0    O29       1.80329      .   S
    C30    O31       1.12163      .   S
    N16    O31       2.19765      .   S
    C30    O32       0.71340      .   S
    Zr7    O32       1.84415      .   S
    C30    O33       1.12666      .   S
    Zr11   O33       2.23782      .   S
    C30    O34       0.73937      .   S
    Zr7    O34       1.80996      .   S
    C35    O36       1.12279      .   S
    N18    O36       2.19786      .   S
    C35    O37       1.12605      .   S
    Zr11   O37       2.23585      .   S
    C35    O38       0.71961      .   S
    Zr7    O38       1.80431      .   S
    C35    O39       0.71885      .   S
    Zr7    O39       1.80167      .   S
    C40    O41       1.12149      .   S
    N17    O41       2.19747      .   S
    C40    O42       0.74256      .   S
    Zr1    O42       1.81116      .   S
    C40    O43       0.71214      .   S
    Zr1    O43       1.85057      .   S
    C40    O44       1.12599      .   S
    Zr9    O44       2.23621      .   S
    C45    O46       1.11993      .   S
    N14    O46       2.19618      .   S
    C45    O47       0.71469      .   S
    Zr6    O47       1.73962      .   S
    C45    O48       1.14528      .   S
    Zr2    O48       2.29782  1_655   S
    C45    O49       0.69268      .   S
    Zr6    O49       1.76789      .   S
    C50    O51       1.12145      .   S
    N13    O51       2.19741      .   S
    C50    O52       0.71214      .   S
    Zr4    O52       1.85066      .   S
    C50    O53       1.12598      .   S
    Zr10   O53       2.23621      .   S
    C50    O54       0.74260      .   S
    Zr4    O54       1.81120      .   S
    C55    O56       1.12168      .   S
    N19    O56       2.19782      .   S
    C55    O57       0.71341      .   S
    Zr3    O57       1.84421      .   S
    C55    O58       1.12664      .   S
    Zr9    O58       2.23778      .   S
    C55    O59       0.73940      .   S
    Zr3    O59       1.81000      .   S
    C60    O61       0.71989      .   S
    Zr4    O61       1.80330      .   S
    C60    O62       1.12619      .   S
    Zr10   O62       2.23619      .   S
    C60    O63       1.12285      .   S
    N13    O63       2.19807  1_655   S
    C60    O64       0.71832      .   S
    Zr4    O64       1.80162      .   S
    C65    O66       1.12016      .   S
    N15    O66       2.19623      .   S
    C65    O67       0.72750      .   S
    Zr4    O67       1.73804  1_545   S
    C65    O68       1.15853      .   S
    Zr1    O68       2.23128  1_554   S
    C65    O69       0.69807      .   S
    Zr4    O69       1.78502  1_545   S
    C70    O71       1.12285      .   S
    N12    O71       2.19807  1_655   S
    C70    O72       1.12619      .   S
    Zr11   O72       2.23620      .   S
    C70    O73       0.71989      .   S
    Zr5    O73       1.80326      .   S
    C70    O74       0.71831      .   S
    Zr5    O74       1.80160      .   S
    C75    O76       1.11997      .   S
    N19    O76       2.19627      .   S
    C75    O77       0.71507      .   S
    Zr5    O77       1.74069  1_545   S
    C75    O78       1.14527      .   S
    Zr0    O78       2.29780      .   S
    C75    O79       0.69298      .   S
    Zr5    O79       1.76901  1_545   S
    C80    O81       1.12168      .   S
    N18    O81       2.19782      .   S
    C80    O82       0.73937      .   S
    Zr6    O82       1.80995      .   S
    C80    O83       0.71341      .   S
    Zr6    O83       1.84413      .   S
    C80    O84       1.12665      .   S
    Zr10   O84       2.23780      .   S
    C85    O86       1.12150      .   S
    N14    O86       2.19749      .   S
    C85    O87       0.74255      .   S
    Zr0    O87       1.81115      .   S
    C85    O88       0.71214      .   S
    Zr0    O88       1.85055      .   S
    C85    O89       1.12599      .   S
    Zr8    O89       2.23622      .   S
    C90    O91       1.12279      .   S
    N19    O91       2.19786      .   S
    C90    O92       0.71884      .   S
    Zr2    O92       1.80165      .   S
    C90    O93       1.12604      .   S
    Zr8    O93       2.23583      .   S
    C90    O94       0.71960      .   S
    Zr2    O94       1.80427      .   S
    C95    O96       0.71469      .   S
    Zr2    O96       1.73963      .   S
    C95    O97       1.11993      .   S
    N13    O97       2.19619      .   S
    C95    O98       1.14527      .   S
    Zr6    O98       2.29780  1_455   S
    C95    O99       0.69268      .   S
    Zr2    O99       1.76788      .   S
    C100   O101      1.11169      .   S
    N15    O101      2.16477  1_556   S
    C100   O102      0.71885      .   S
    Zr3    O102      1.80167      .   S
    C100   O103      1.12605      .   S
    Zr9    O103      2.23586      .   S
    C100   O104      0.71961      .   S
    Zr3    O104      1.80430      .   S
    C105   O106      1.12284      .   S
    N17    O106      2.19805  1_455   S
    C105   O107      1.12619      .   S
    Zr9    O107      2.23620      .   S
    C105   O108      0.71988      .   S
    Zr1    O108      1.80331      .   S
    C105   O109      0.71833      .   S
    Zr1    O109      1.80160      .   S
    C110   O111      1.14528      .   S
    Zr3    O111      2.29781  1_655   S
    C110   O112      0.69268      .   S
    Zr7    O112      1.76789      .   S
    C110   O113      1.11992      .   S
    N17    O113      2.19617      .   S
    C110   O114      0.71469      .   S
    Zr7    O114      1.73963      .   S
    C115   O116      0.71961      .   S
    Zr6    O116      1.80433      .   S
    C115   O117      1.12604      .   S
    Zr10   O117      2.23584      .   S
    C115   O118      1.12275      .   S
    N16    O118      2.19774  1_554   S
    C115   O119      0.71885      .   S
    Zr6    O119      1.80169      .   S
    C120   O121      1.11995      .   S
    N16    O121      2.19625      .   S
    C120   O122      1.14511      .   S
    Zr4    O122      2.29761  1_556   S
    C120   O123      0.69299      .   S
    Zr1    O123      1.76898  1_565   S
    C120   O124      0.71503      .   S
    Zr1    O124      1.74074  1_565   S
    C125   O126      0.71469      .   S
    Zr3    O126      1.73963      .   S
    C125   O127      1.14528      .   S
    Zr7    O127      2.29781  1_455   S
    C125   O128      0.69268      .   S
    Zr3    O128      1.76788      .   S
    C125   O129      1.11994      .   S
    N12    O129      2.19620      .   S
    C130   O131      0.74259      .   S
    Zr5    O131      1.81118      .   S
    C130   O132      1.12147      .   S
    N12    O132      2.19742      .   S
    C130   O133      1.12598      .   S
    Zr11   O133      2.23621      .   S
    C130   O134      0.71214      .   S
    Zr5    O134      1.85064      .   S
    C135   O136      1.12664      .   S
    Zr8    O136      2.23779      .   S
    C135   O137      0.71342      .   S
    Zr2    O137      1.84422      .   S
    C135   O138      0.73941      .   S
    Zr2    O138      1.81001      .   S
    C135   O139      1.13293      .   S
    N15    O139      2.23143      .   S
