# CIF file generated by openbabel 2.4.90, see http://openbabel.sf.net
data_I
_chemical_name_common ''
_cell_length_a 8.8355
_cell_length_b 8.8355
_cell_length_c 13.703
_cell_angle_alpha 95.653
_cell_angle_beta 95.661
_cell_angle_gamma 92.63
_space_group_name_H-M_alt 'P 1'
_space_group_name_Hall 'P 1'
loop_
    _symmetry_equiv_pos_as_xyz
    x,y,z
loop_
    _atom_site_label
    _atom_site_type_symbol
    _atom_site_fract_x
    _atom_site_fract_y
    _atom_site_fract_z
    _atom_site_occupancy
    C0      C    0.97499   0.53089   0.36414   1.000
    C1      C    0.14122   0.35158   0.46909   1.000
    C2      C    0.46907   0.02497   0.13587   1.000
    C3      C    0.64838   0.85871   0.03091   1.000
    C4      C    0.02492   0.46905   0.63587   1.000
    C5      C    0.85869   0.64837   0.53092   1.000
    C6      C    0.53083   0.97498   0.86414   1.000
    C7      C    0.35153   0.14124   0.96911   1.000
    N8      N    0.95745   0.54600   0.27870   1.000
    N9      N    0.23597   0.26697   0.44740   1.000
    N10     N    0.45399   0.04255   0.22132   1.000
    N11     N    0.73297   0.76392   0.05259   1.000
    N12     N    0.04247   0.45394   0.72131   1.000
    N13     N    0.76394   0.73298   0.55261   1.000
    N14     N    0.54591   0.95740   0.77869   1.000
    N15     N    0.26694   0.23603   0.94742   1.000
loop_
    _geom_bond_atom_site_label_1
    _geom_bond_atom_site_label_2
    _geom_bond_distance
    _geom_bond_site_symmetry_2
    _ccdc_geom_bond_type
    C3     N11       1.18779      .   S
    C2     N10       1.18726      .   S
    N8     C0        1.18726      .   S
    N9     C1        1.18778      .   S
    C5     N13       1.18778      .   S
    C4     N12       1.18725      .   S
    N14    C6        1.18726      .   S
    N15    C7        1.18779      .   S
