# CIF file generated by openbabel 2.4.90, see http://openbabel.sf.net
data_I
_chemical_name_common ''
_cell_length_a 8.8355
_cell_length_b 8.8355
_cell_length_c 13.703
_cell_angle_alpha 95.653
_cell_angle_beta 95.661
_cell_angle_gamma 92.63
_space_group_name_H-M_alt 'P 1'
_space_group_name_Hall 'P 1'
loop_
    _symmetry_equiv_pos_as_xyz
    x,y,z
loop_
    _atom_site_label
    _atom_site_type_symbol
    _atom_site_fract_x
    _atom_site_fract_y
    _atom_site_fract_z
    _atom_site_occupancy
    C0      C    0.83306   0.35387   0.47746   1.000
    C1      C    0.64608   0.16688   0.02257   1.000
    C2      C    0.16685   0.64608   0.52255   1.000
    C3      C    0.35383   0.83307   0.97745   1.000
    N4      N    0.72202   0.27086   0.46266   1.000
    N5      N    0.72914   0.27790   0.03739   1.000
    N6      N    0.27789   0.72909   0.53735   1.000
    N7      N    0.27077   0.72205   0.96262   1.000
loop_
    _geom_bond_atom_site_label_1
    _geom_bond_atom_site_label_2
    _geom_bond_distance
    _geom_bond_site_symmetry_2
    _ccdc_geom_bond_type
    C1     N5        1.18623      .   S
    N4     C0        1.18622      .   S
    C2     N6        1.18621      .   S
    N7     C3        1.18623      .   S
