# CIF file generated by openbabel 2.4.90, see http://openbabel.sf.net
data_I
_chemical_name_common ''
_cell_length_a 8.8355
_cell_length_b 8.8355
_cell_length_c 13.703
_cell_angle_alpha 95.653
_cell_angle_beta 95.661
_cell_angle_gamma 92.63
_space_group_name_H-M_alt 'P 1'
_space_group_name_Hall 'P 1'
loop_
    _symmetry_equiv_pos_as_xyz
    x,y,z
loop_
    _atom_site_label
    _atom_site_type_symbol
    _atom_site_fract_x
    _atom_site_fract_y
    _atom_site_fract_z
    _atom_site_occupancy
    N0      N    0.77754   0.31236   0.47006   1.000
    N1      N    0.68761   0.22239   0.02998   1.000
    N2      N    0.22237   0.68759   0.52995   1.000
    N3      N    0.31230   0.77756   0.97003   1.000
    Zr4     Zr   0.49997   0.99999   0.50001   1.000
    O5      O    0.59407   0.13088   0.47490   1.000
    O6      O    0.40585   0.86908   0.52511   1.000
    Zr7     Zr   0.99997   0.49999   0.00001   1.000
    O8      O    0.86909   0.40587   0.02513   1.000
    O9      O    0.13084   0.59409   0.97488   1.000
    Zr10    Zr   0.99997   0.49998   0.50001   1.000
    O11     O    0.92350   0.43481   0.48970   1.000
    O12     O    0.07643   0.56514   0.51031   1.000
    Zr13    Zr   0.49995   0.99996   0.00000   1.000
    O14     O    0.56513   0.07644   0.01032   1.000
    O15     O    0.43477   0.92350   0.98969   1.000
loop_
    _geom_bond_atom_site_label_1
    _geom_bond_atom_site_label_2
    _geom_bond_distance
    _geom_bond_site_symmetry_2
    _ccdc_geom_bond_type
    Zr4    O5        1.48112  1_565   S
    N0     O5        2.23763      .   S
    Zr4    O6        1.48124      .   S
    N2     O6        2.23779      .   S
    Zr7    O8        1.48116      .   S
    N1     O8        2.23773      .   S
    Zr7    O9        1.48102  1_654   S
    N3     O9        2.23756      .   S
    Zr10   O11       0.85874      .   S
    N0     O11       1.62853      .   S
    Zr10   O12       0.85867  1_655   S
    N2     O12       1.62843      .   S
    Zr13   O14       0.85883  1_565   S
    N1     O14       1.62870      .   S
    Zr13   O15       0.85876  1_554   S
    N3     O15       1.62857      .   S
