# CIF file generated by openbabel 2.4.90, see http://openbabel.sf.net
data_I
_chemical_name_common ''
_cell_length_a 8.8355
_cell_length_b 8.8355
_cell_length_c 13.703
_cell_angle_alpha 95.653
_cell_angle_beta 95.661
_cell_angle_gamma 92.63
_space_group_name_H-M_alt 'P 1'
_space_group_name_Hall 'P 1'
loop_
    _symmetry_equiv_pos_as_xyz
    x,y,z
loop_
    _atom_site_label
    _atom_site_type_symbol
    _atom_site_fract_x
    _atom_site_fract_y
    _atom_site_fract_z
    _atom_site_occupancy
    N0      N    0.52811   0.47177   0.75002   1.000
    N1      N    0.47182   0.52819   0.24999   1.000
    N2      N    0.77754   0.31236   0.47006   1.000
    N3      N    0.96622   0.53845   0.32142   1.000
    N4      N    0.18860   0.30927   0.45825   1.000
    N5      N    0.68761   0.22239   0.02998   1.000
    N6      N    0.46153   0.03376   0.17860   1.000
    N7      N    0.69067   0.81132   0.04175   1.000
    N8      N    0.22237   0.68759   0.52995   1.000
    N9      N    0.03370   0.46150   0.67859   1.000
    N10     N    0.81131   0.69068   0.54176   1.000
    N11     N    0.31230   0.77756   0.97003   1.000
    N12     N    0.53837   0.96619   0.82142   1.000
    N13     N    0.30924   0.18863   0.95826   1.000
    Zr14    Zr   0.49997   0.99999   0.50001   1.000
    O15     O    0.59407   0.13088   0.47490   1.000
    O16     O    0.40585   0.86908   0.52511   1.000
    Zr17    Zr   0.99997   0.49999   0.00001   1.000
    O18     O    0.86909   0.40587   0.02513   1.000
    O19     O    0.13084   0.59409   0.97488   1.000
    Zr20    Zr   0.99997   0.49998   0.50001   1.000
    O21     O    0.92350   0.43481   0.48970   1.000
    O22     O    0.07643   0.56514   0.51031   1.000
    O23     O    0.06478   0.43375   0.48570   1.000
    O24     O    0.98841   0.51346   0.43838   1.000
    O25     O    0.93514   0.56620   0.51431   1.000
    O26     O    0.01152   0.48649   0.56163   1.000
    Zr27    Zr   0.49995   0.99996   0.00000   1.000
    O28     O    0.56618   0.93515   0.01430   1.000
    O29     O    0.43372   0.06479   0.98570   1.000
    O30     O    0.48649   0.01154   0.06163   1.000
    O31     O    0.56513   0.07644   0.01032   1.000
    O32     O    0.43477   0.92350   0.98969   1.000
    O33     O    0.51342   0.98840   0.93837   1.000
loop_
    _geom_bond_atom_site_label_1
    _geom_bond_atom_site_label_2
    _geom_bond_distance
    _geom_bond_site_symmetry_2
    _ccdc_geom_bond_type
    Zr14   O15       1.48112  1_565   S
    N2     O15       2.23763      .   S
    Zr14   O16       1.48124      .   S
    N8     O16       2.23779      .   S
    Zr17   O18       1.48116      .   S
    N5     O18       2.23773      .   S
    Zr17   O19       1.48102  1_654   S
    N11    O19       2.23756      .   S
    Zr20   O21       0.85874      .   S
    N2     O21       1.62853      .   S
    Zr20   O22       0.85867  1_655   S
    N8     O22       1.62843      .   S
    Zr20   O23       0.85968  1_655   S
    N4     O23       1.63035      .   S
    Zr20   O24       0.86123      .   S
    N3     O24       1.63319      .   S
    Zr20   O25       0.85974      .   S
    N10    O25       1.63044      .   S
    Zr20   O26       0.86123  1_655   S
    N9     O26       1.63319      .   S
    Zr27   O28       0.85972      .   S
    N7     O28       1.63041      .   S
    Zr27   O29       0.85973  1_564   S
    N13    O29       1.63043      .   S
    Zr27   O30       0.86129  1_565   S
    N6     O30       1.63328      .   S
    Zr27   O31       0.85883  1_565   S
    N5     O31       1.62870      .   S
    Zr27   O32       0.85876  1_554   S
    N11    O32       1.62857      .   S
    Zr27   O33       0.86123  1_554   S
    N12    O33       1.63319      .   S
