# CIF file generated by openbabel 2.4.90, see http://openbabel.sf.net
data_I
_chemical_name_common ''
_cell_length_a 8.8355
_cell_length_b 8.8355
_cell_length_c 13.703
_cell_angle_alpha 95.653
_cell_angle_beta 95.661
_cell_angle_gamma 92.63
_space_group_name_H-M_alt 'P 1'
_space_group_name_Hall 'P 1'
loop_
    _symmetry_equiv_pos_as_xyz
    x,y,z
loop_
    _atom_site_label
    _atom_site_type_symbol
    _atom_site_fract_x
    _atom_site_fract_y
    _atom_site_fract_z
    _atom_site_occupancy
    Zr0     Zr   0.47559   0.15150   0.39638   1.000
    Zr1     Zr   0.84849   0.52437   0.10364   1.000
    Zr2     Zr   0.52433   0.84846   0.60363   1.000
    Zr3     Zr   0.15144   0.47558   0.89637   1.000
    Zr4     Zr   0.99997   0.49998   0.50001   1.000
    Zr5     Zr   0.49995   0.99996   0.00000   1.000
    Zr6     Zr   0.31567   0.10423   0.55807   1.000
    Zr7     Zr   0.47319   0.18362   0.61407   1.000
    Zr8     Zr   0.89579   0.68429   0.94188   1.000
    Zr9     Zr   0.81632   0.52675   0.88596   1.000
    Zr10    Zr   0.68427   0.89575   0.44194   1.000
    Zr11    Zr   0.52675   0.81636   0.38594   1.000
    Zr12    Zr   0.10415   0.31569   0.05813   1.000
    Zr13    Zr   0.18362   0.47323   0.11405   1.000
    Zr14    Zr   0.42503   0.08810   0.56639   1.000
    Zr15    Zr   0.91188   0.57492   0.93361   1.000
    Zr16    Zr   0.57491   0.91188   0.43363   1.000
    Zr17    Zr   0.08806   0.42506   0.06640   1.000
    O18     O    0.09611   0.37037   0.06227   1.000
    O19     O    0.13584   0.44915   0.09023   1.000
    O20     O    0.55083   0.86412   0.40978   1.000
    O21     O    0.62959   0.90382   0.43778   1.000
    O22     O    0.37035   0.09616   0.56223   1.000
    O23     O    0.44911   0.13586   0.59023   1.000
    O24     O    0.86410   0.55084   0.90979   1.000
    O25     O    0.90384   0.62961   0.93774   1.000
    O26     O    0.45031   0.11980   0.48138   1.000
    O27     O    0.47468   0.96828   0.58501   1.000
    O28     O    0.88018   0.54965   0.01862   1.000
    O29     O    0.03166   0.52525   0.91499   1.000
    O30     O    0.52525   0.03169   0.41500   1.000
    O31     O    0.54962   0.88017   0.51863   1.000
    O32     O    0.96827   0.47471   0.08502   1.000
    O33     O    0.11975   0.45032   0.98139   1.000
    N34     N    0.52811   0.47177   0.75002   1.000
    N35     N    0.47182   0.52819   0.24999   1.000
    N36     N    0.77754   0.31236   0.47006   1.000
    O37     O    0.84703   0.36964   0.47940   1.000
    O38     O    0.68817   0.26177   0.44979   1.000
    N39     N    0.96622   0.53845   0.32142   1.000
    O40     O    0.97685   0.52694   0.37675   1.000
    N41     N    0.18860   0.30927   0.45825   1.000
    O42     O    0.12960   0.36752   0.47140   1.000
    N43     N    0.68761   0.22239   0.02998   1.000
    O44     O    0.63031   0.15291   0.02063   1.000
    O45     O    0.73821   0.31176   0.05025   1.000
    N46     N    0.46153   0.03376   0.17860   1.000
    O47     O    0.47302   0.02311   0.12327   1.000
    N48     N    0.69067   0.81132   0.04175   1.000
    O49     O    0.63242   0.87033   0.02860   1.000
    N50     N    0.22237   0.68759   0.52995   1.000
    O51     O    0.15289   0.63031   0.52061   1.000
    O52     O    0.31174   0.73818   0.55022   1.000
    N53     N    0.03370   0.46150   0.67859   1.000
    O54     O    0.02307   0.47301   0.62326   1.000
    N55     N    0.81131   0.69068   0.54176   1.000
    O56     O    0.87032   0.63243   0.52861   1.000
    N57     N    0.31230   0.77756   0.97003   1.000
    O58     O    0.36960   0.84704   0.97938   1.000
    O59     O    0.26170   0.68819   0.94976   1.000
    N60     N    0.53837   0.96619   0.82142   1.000
    O61     O    0.52688   0.97683   0.87674   1.000
    N62     N    0.30924   0.18863   0.95826   1.000
    O63     O    0.36749   0.12962   0.97141   1.000
loop_
    _geom_bond_atom_site_label_1
    _geom_bond_atom_site_label_2
    _geom_bond_distance
    _geom_bond_site_symmetry_2
    _ccdc_geom_bond_type
    Zr12   O18       0.49017      .   S
    Zr17   O18       0.49017      .   S
    Zr17   O19       0.53006      .   S
    Zr13   O19       0.53006      .   S
    Zr11   O20       0.53006      .   S
    Zr16   O20       0.53006      .   S
    Zr16   O21       0.49017      .   S
    Zr10   O21       0.49017      .   S
    Zr6    O22       0.49018      .   S
    Zr14   O22       0.49018      .   S
    Zr14   O23       0.53007      .   S
    Zr7    O23       0.53007      .   S
    Zr9    O24       0.53005      .   S
    Zr15   O24       0.53005      .   S
    Zr15   O25       0.49016      .   S
    Zr8    O25       0.49016      .   S
    Zr14   O26       1.26292      .   S
    Zr0    O26       1.26292      .   S
    Zr14   O27       1.20500  1_545   S
    Zr2    O27       1.20500      .   S
    Zr15   O28       1.26305  1_556   S
    Zr1    O28       1.26305      .   S
    Zr15   O29       1.20480  1_655   S
    Zr3    O29       1.20480      .   S
    Zr16   O30       1.20499  1_565   S
    Zr0    O30       1.20499      .   S
    Zr16   O31       1.26296      .   S
    Zr2    O31       1.26296      .   S
    Zr17   O32       1.20481  1_455   S
    Zr1    O32       1.20481      .   S
    Zr17   O33       1.26301  1_554   S
    Zr3    O33       1.26301      .   S
    N36    O37       0.76986      .   S
    Zr4    O37       1.71748      .   S
    N36    O38       0.89462      .   S
    Zr0    O38       2.10552      .   S
    N39    O40       0.77197      .   S
    Zr4    O40       1.72246      .   S
    N41    O42       0.77073      .   S
    Zr4    O42       1.71936  1_655   S
    N43    O44       0.76993      .   S
    Zr5    O44       1.71767  1_565   S
    N43    O45       0.89468      .   S
    Zr1    O45       2.10570      .   S
    N46    O47       0.77201      .   S
    Zr5    O47       1.72257  1_565   S
    N48    O49       0.77075      .   S
    Zr5    O49       1.71944      .   S
    N50    O51       0.76981      .   S
    Zr4    O51       1.71735  1_655   S
    N50    O52       0.89463      .   S
    Zr2    O52       2.10556      .   S
    N53    O54       0.77197      .   S
    Zr4    O54       1.72245  1_655   S
    N55    O56       0.77077      .   S
    Zr4    O56       1.71947      .   S
    N57    O58       0.76987      .   S
    Zr5    O58       1.71751  1_554   S
    N57    O59       0.89467      .   S
    Zr3    O59       2.10567      .   S
    N60    O61       0.77197      .   S
    Zr5    O61       1.72245  1_554   S
    N62    O63       0.77076      .   S
    Zr5    O63       1.71946  1_564   S
