# CIF file generated by openbabel 2.4.90, see http://openbabel.sf.net
data_I
_chemical_name_common ''
_cell_length_a 17.288
_cell_length_b 17.276
_cell_length_c 17.335
_cell_angle_alpha 85.834
_cell_angle_beta 86.336
_cell_angle_gamma 86.54
_space_group_name_H-M_alt 'P 1'
_space_group_name_Hall 'P 1'
loop_
    _symmetry_equiv_pos_as_xyz
    x,y,z
loop_
    _atom_site_label
    _atom_site_type_symbol
    _atom_site_fract_x
    _atom_site_fract_y
    _atom_site_fract_z
    _atom_site_occupancy
    Lv0     Lv   0.17698   0.13478   0.68533   1.000
    Lv1     Lv   0.68521   0.17571   0.13500   1.000
    Lv2     Lv   0.31480   0.82436   0.86492   1.000
    Lv3     Lv   0.82294   0.86524   0.31463   1.000
    Lv4     Lv   0.13396   0.68435   0.17781   1.000
    Lv5     Lv   0.86602   0.31568   0.82207   1.000
