# CIF file generated by openbabel 2.4.90, see http://openbabel.sf.net
data_I
_chemical_name_common ''
_cell_length_a 17.288
_cell_length_b 17.276
_cell_length_c 17.335
_cell_angle_alpha 85.834
_cell_angle_beta 86.336
_cell_angle_gamma 86.54
_space_group_name_H-M_alt 'P 1'
_space_group_name_Hall 'P 1'
loop_
    _symmetry_equiv_pos_as_xyz
    x,y,z
loop_
    _atom_site_label
    _atom_site_type_symbol
    _atom_site_fract_x
    _atom_site_fract_y
    _atom_site_fract_z
    _atom_site_occupancy
    H0      H    0.91620   0.91144   0.50540   1.000
    H1      H    0.74463   0.74721   0.37655   1.000
    H2      H    0.74226   0.74327   0.52121   1.000
    H3      H    0.00000   0.00969   0.33342   1.000
    H4      H    0.93644   0.01618   0.41717   1.000
    H5      H    0.01677   0.94498   0.41778   1.000
    H6      H    0.71670   0.88088   0.12199   1.000
    H7      H    0.94514   0.77080   0.26030   1.000
    H8      H    0.94177   0.76114   0.11828   1.000
    H9      H    0.60094   0.94880   0.28540   1.000
    H10     H    0.65192   0.96877   0.19353   1.000
    H11     H    0.61264   0.87539   0.21675   1.000
    H12     H    0.50781   0.91502   0.91116   1.000
    H13     H    0.37474   0.74841   0.74592   1.000
    H14     H    0.51977   0.74527   0.74155   1.000
    H15     H    0.33685   0.00000   0.00916   1.000
    H16     H    0.42031   0.93482   0.01585   1.000
    H17     H    0.42105   0.01598   0.94474   1.000
    H18     H    0.12107   0.71865   0.88110   1.000
    H19     H    0.25984   0.94770   0.76970   1.000
    H20     H    0.11736   0.94483   0.76056   1.000
    H21     H    0.28456   0.60233   0.95028   1.000
    H22     H    0.19312   0.65393   0.96955   1.000
    H23     H    0.21492   0.61418   0.87719   1.000
    H24     H    0.90996   0.50750   0.91667   1.000
    H25     H    0.75071   0.37646   0.74200   1.000
    H26     H    0.74518   0.52151   0.74083   1.000
    H27     H    0.00891   0.33630   0.00000   1.000
    H28     H    0.01557   0.42088   0.93692   1.000
    H29     H    0.94360   0.41968   0.01659   1.000
    H30     H    0.87973   0.12330   0.71487   1.000
    H31     H    0.77466   0.25878   0.94488   1.000
    H32     H    0.76394   0.11639   0.94169   1.000
    H33     H    0.94914   0.28825   0.59902   1.000
    H34     H    0.96904   0.19630   0.65075   1.000
    H35     H    0.87603   0.21812   0.61119   1.000
    H36     H    0.08378   0.08859   0.49454   1.000
    H37     H    0.25539   0.25277   0.62345   1.000
    H38     H    0.25775   0.25672   0.47800   1.000
    H39     H    0.99781   0.99034   0.66658   1.000
    H40     H    0.06353   0.98385   0.58283   1.000
    H41     H    0.98320   0.05505   0.58222   1.000
    H42     H    0.28331   0.11915   0.87801   1.000
    H43     H    0.05485   0.22918   0.73971   1.000
    H44     H    0.05823   0.23885   0.88172   1.000
    H45     H    0.39908   0.05123   0.71458   1.000
    H46     H    0.34810   0.03127   0.80640   1.000
    H47     H    0.38737   0.12466   0.78320   1.000
    H48     H    0.49221   0.08498   0.08886   1.000
    H49     H    0.62523   0.25186   0.25386   1.000
    H50     H    0.48021   0.25499   0.25822   1.000
    H51     H    0.66315   0.99876   0.99090   1.000
    H52     H    0.57969   0.06510   0.98419   1.000
    H53     H    0.57896   0.98401   0.05538   1.000
    H54     H    0.87896   0.28148   0.11895   1.000
    H55     H    0.74012   0.05240   0.23015   1.000
    H56     H    0.88259   0.05523   0.23934   1.000
    H57     H    0.71552   0.39787   0.04975   1.000
    H58     H    0.80694   0.34623   0.03046   1.000
    H59     H    0.78518   0.38597   0.12282   1.000
    H60     H    0.09004   0.49253   0.08333   1.000
    H61     H    0.24927   0.62356   0.25742   1.000
    H62     H    0.25480   0.47851   0.25918   1.000
    H63     H    0.99108   0.66372   0.99725   1.000
    H64     H    0.98444   0.57915   0.06307   1.000
    H65     H    0.05641   0.58035   0.98341   1.000
    H66     H    0.12024   0.87673   0.28513   1.000
    H67     H    0.22534   0.74125   0.05514   1.000
    H68     H    0.23605   0.88364   0.05833   1.000
    H69     H    0.05084   0.71177   0.40098   1.000
    H70     H    0.03094   0.80371   0.34927   1.000
    H71     H    0.12395   0.78190   0.38882   1.000
    C72     C    0.82956   0.82704   0.52120   1.000
    C73     C    0.87954   0.87559   0.47601   1.000
    C74     C    0.88089   0.87755   0.39523   1.000
    C75     C    0.83220   0.83043   0.35865   1.000
    C76     C    0.78250   0.78297   0.40504   1.000
    C77     C    0.78085   0.78053   0.48552   1.000
    C78     C    0.97317   0.97640   0.38170   1.000
    C79     C    0.82798   0.81969   0.11245   1.000
    C80     C    0.76570   0.85673   0.15376   1.000
    C81     C    0.76758   0.86186   0.23347   1.000
    C82     C    0.83261   0.83015   0.27299   1.000
    C83     C    0.89493   0.79526   0.23017   1.000
    C84     C    0.89320   0.78920   0.15059   1.000
    C85     C    0.63998   0.92384   0.24035   1.000
    C86     C    0.52175   0.83035   0.82609   1.000
    C87     C    0.47747   0.87945   0.87509   1.000
    C88     C    0.39645   0.88139   0.87715   1.000
    O89     O    0.29091   0.10299   0.72219   1.000
    C90     C    0.35864   0.83402   0.82982   1.000
    C91     C    0.40413   0.78524   0.78180   1.000
    C92     C    0.48484   0.78313   0.77923   1.000
    C93     C    0.38473   0.97223   0.97609   1.000
    C94     C    0.11136   0.83052   0.81962   1.000
    C95     C    0.15294   0.76785   0.85679   1.000
    C96     C    0.23295   0.76950   0.86170   1.000
    C97     C    0.27265   0.83473   0.82971   1.000
    C98     C    0.22963   0.89737   0.79450   1.000
    C99     C    0.14970   0.89588   0.78874   1.000
    C100    C    0.23945   0.64158   0.92400   1.000
    C101    C    0.82715   0.52244   0.82915   1.000
    C102    C    0.87524   0.47755   0.87940   1.000
    C103    C    0.87808   0.39649   0.88047   1.000
    C104    C    0.83231   0.35921   0.83111   1.000
    C105    C    0.78544   0.40538   0.78098   1.000
    C106    C    0.78210   0.48611   0.77968   1.000
    C107    C    0.97569   0.38428   0.97339   1.000
    C108    C    0.82039   0.11205   0.82703   1.000
    C109    C    0.85672   0.15448   0.76426   1.000
    C110    C    0.86246   0.23447   0.76602   1.000
    C111    C    0.83213   0.27324   0.83151   1.000
    C112    C    0.79811   0.22928   0.89433   1.000
    C113    C    0.79141   0.14946   0.89269   1.000
    C114    C    0.92413   0.24262   0.63834   1.000
    C115    C    0.17044   0.17297   0.47877   1.000
    C116    C    0.12045   0.12443   0.52398   1.000
    C117    C    0.11910   0.12246   0.60477   1.000
    C118    C    0.16780   0.16958   0.64135   1.000
    C119    C    0.21751   0.21702   0.59496   1.000
    C120    C    0.21915   0.21947   0.51440   1.000
    C121    C    0.02680   0.02363   0.61830   1.000
    C122    C    0.17202   0.18033   0.88756   1.000
    C123    C    0.23430   0.14329   0.84624   1.000
    C124    C    0.23243   0.13816   0.76650   1.000
    C125    C    0.16739   0.16985   0.72701   1.000
    C126    C    0.10507   0.20473   0.76984   1.000
    C127    C    0.10680   0.21080   0.84941   1.000
    C128    C    0.36004   0.07620   0.75965   1.000
    C129    C    0.47824   0.16978   0.17380   1.000
    C130    C    0.52254   0.12061   0.12488   1.000
    C131    C    0.60356   0.11869   0.12282   1.000
    C132    C    0.64136   0.16613   0.17008   1.000
    C133    C    0.59585   0.21498   0.21795   1.000
    C134    C    0.51515   0.21708   0.22059   1.000
    C135    C    0.61528   0.02774   0.02399   1.000
    C136    C    0.88863   0.16958   0.18030   1.000
    C137    C    0.84707   0.23228   0.14323   1.000
    C138    C    0.76707   0.23066   0.13823   1.000
    C139    C    0.72734   0.16541   0.17021   1.000
    C140    C    0.77034   0.10274   0.20531   1.000
    C141    C    0.85027   0.10420   0.21110   1.000
    C142    C    0.76062   0.35859   0.07512   1.000
    C143    C    0.17283   0.47759   0.17085   1.000
    C144    C    0.12475   0.52248   0.12057   1.000
    C145    C    0.12191   0.60354   0.11953   1.000
    C146    C    0.16767   0.64081   0.16890   1.000
    C147    C    0.21455   0.59465   0.21900   1.000
    C148    C    0.21788   0.51392   0.22033   1.000
    C149    C    0.02431   0.61575   0.02660   1.000
    C150    C    0.17959   0.88797   0.17290   1.000
    C151    C    0.14326   0.84555   0.23575   1.000
    C152    C    0.13752   0.76555   0.23398   1.000
    C153    C    0.16786   0.72679   0.16850   1.000
    C154    C    0.20189   0.77074   0.10568   1.000
    C155    C    0.20858   0.85057   0.10732   1.000
    C156    C    0.07585   0.75739   0.36167   1.000
    O157    O    0.92720   0.92377   0.34680   1.000
    O158    O    0.70910   0.89703   0.27781   1.000
    O159    O    0.34895   0.92709   0.92364   1.000
    O160    O    0.27739   0.71048   0.89694   1.000
    O161    O    0.92399   0.34856   0.92720   1.000
    O162    O    0.89686   0.27983   0.70694   1.000
    O163    O    0.07278   0.07626   0.65316   1.000
    O164    O    0.65106   0.07294   0.07638   1.000
    O165    O    0.72265   0.28970   0.10307   1.000
    O166    O    0.07600   0.65147   0.07280   1.000
    O167    O    0.10312   0.72019   0.29307   1.000
loop_
    _geom_bond_atom_site_label_1
    _geom_bond_atom_site_label_2
    _geom_bond_distance
    _geom_bond_site_symmetry_2
    _ccdc_geom_bond_type
    H27    C107      1.07270  1_454   S
    H15    C93       1.08408  1_544   S
    H16    C93       1.10122  1_554   S
    H29    C107      1.10229  1_554   S
    C135   H53       1.10218  1_545   S
    C135   O164      1.43194      .   S
    C135   H52       1.10129  1_554   S
    C135   H51       1.09348  1_544   S
    C149   H64       1.10163  1_455   S
    C149   O166      1.43200      .   S
    C149   H65       1.10217  1_554   S
    C149   H63       1.09295  1_454   S
    H58    C142      1.10022      .   S
    H57    C142      1.09462      .   S
    H67    C154      1.08910      .   S
    H68    C155      1.08806      .   S
    O166   C145      1.37008      .   S
    C142   O165      1.43241      .   S
    C142   H59       1.10168      .   S
    O164   C131      1.36997      .   S
    H60    C144      1.08639      .   S
    H48    C130      1.08650      .   S
    O165   C138      1.36991      .   S
    C154   C155      1.39332      .   S
    C154   C153      1.40015      .   S
    C155   C150      1.39856      .   S
    C79    C84       1.39951      .   S
    C79    C80       1.40233      .   S
    H8     C84       1.08807      .   S
    H54    C137      1.08565      .   S
    C145   C144      1.39715      .   S
    C145   C146      1.41458      .   S
    C144   C143      1.40310      .   S
    H6     C80       1.08567      .   S
    C131   C130      1.39723      .   S
    C131   C132      1.41449      .   S
    C130   C129      1.40376      .   S
    C138   C137      1.39347      .   S
    C138   C139      1.41546      .   S
    C137   C136      1.40223      .   S
    C84    C83       1.39342      .   S
    C80    C81       1.39357      .   S
    C153   C146      1.48505      .   S
    C153   C152      1.41562      .   S
    C146   C147      1.39945      .   S
    C132   C139      1.48588      .   S
    C132   C133      1.39921      .   S
    C139   C140      1.40000      .   S
    C143   C148      1.39953      .   S
    C150   C151      1.40383      .   S
    C129   C134      1.39925      .   S
    C136   C141      1.39928      .   S
    H10    C85       1.10016      .   S
    C140   C141      1.39371      .   S
    C140   H55       1.08922      .   S
    C141   H56       1.08877      .   S
    H11    C85       1.10160      .   S
    C133   C134      1.39138      .   S
    C133   H49       1.09031      .   S
    C147   C148      1.39091      .   S
    C147   H61       1.09050      .   S
    C148   H62       1.08772      .   S
    C134   H50       1.08778      .   S
    C83    H7        1.08932      .   S
    C83    C82       1.39980      .   S
    C81    C82       1.41522      .   S
    C81    O158      1.36982      .   S
    C152   C151      1.39424      .   S
    C152   O167      1.37072      .   S
    C151   H66       1.08573      .   S
    C85    O158      1.43281      .   S
    C85    H9        1.09440      .   S
    C82    C75       1.48483      .   S
    O167   C156      1.43257      .   S
    H3     C78       1.07656  1_445   S
    O157   C78       1.43281      .   S
    O157   C74       1.37009      .   S
    H70    C156      1.10041      .   S
    C75    C74       1.41407      .   S
    C75    C76       1.39926      .   S
    C156   H71       1.10167      .   S
    C156   H69       1.09460      .   S
    H1     C76       1.09027      .   S
    C78    H4        1.10114  1_565   S
    C78    H5        1.10247  1_655   S
    C74    C73       1.39700      .   S
    C76    C77       1.39121      .   S
    C73    H0        1.08590      .   S
    C73    C72       1.40328      .   S
    H38    C120      1.09388      .   S
    C115   C120      1.39873      .   S
    C115   C116      1.40346      .   S
    C77    C72       1.39920      .   S
    C77    H2        1.08781      .   S
    H36    C116      1.08639      .   S
    C120   C119      1.39259      .   S
    C116   C117      1.39717      .   S
    H41    C121      1.10248  1_655   S
    H40    C121      1.10114  1_565   S
    C119   H37       1.09026      .   S
    C119   C118      1.39926      .   S
    H33    C114      1.09466      .   S
    C117   C118      1.41405      .   S
    C117   O163      1.36973      .   S
    H35    C114      1.10165      .   S
    C121   O163      1.43252      .   S
    C121   H39       1.09245  1_445   S
    C114   H34       1.10043      .   S
    C114   O162      1.43263      .   S
    C118   C125      1.48483      .   S
    O162   C110      1.37056      .   S
    H45    C128      1.09466      .   S
    H30    C109      1.08583      .   S
    O89    C128      1.43284      .   S
    O89    C124      1.36955      .   S
    C125   C124      1.41497      .   S
    C125   C126      1.39988      .   S
    H43    C126      1.08934      .   S
    H26    C106      1.08773      .   S
    H14    C92       1.08773      .   S
    H25    C105      1.09716      .   S
    H13    C91       1.08942      .   S
    C128   H47       1.10125      .   S
    C128   H46       1.09930      .   S
    H20    C99       1.08815      .   S
    C109   C110      1.39422      .   S
    C109   C108      1.40283      .   S
    C110   C111      1.41574      .   S
    C124   C123      1.39410      .   S
    H19    C98       1.08874      .   S
    C126   C127      1.39326      .   S
    C92    C91       1.39143      .   S
    C92    C86       1.39931      .   S
    C106   C105      1.39094      .   S
    C106   C101      1.39946      .   S
    C105   C104      1.39978      .   S
    C91    C90       1.39997      .   S
    C99    C98       1.39373      .   S
    C99    C94       1.39940      .   S
    C98    C97       1.40055      .   S
    C94    C95       1.40277      .   S
    C86    C87       1.40375      .   S
    C108   C113      1.39964      .   S
    C101   C102      1.40284      .   S
    C97    C90       1.48594      .   S
    C97    C96       1.41518      .   S
    C90    C88       1.41453      .   S
    C104   C111      1.48507      .   S
    C104   C103      1.41454      .   S
    C111   C112      1.40011      .   S
    C123   H42       1.08568      .   S
    C123   C122      1.40244      .   S
    C127   H44       1.08807      .   S
    C127   C122      1.39959      .   S
    C95    C96       1.39333      .   S
    C95    H18       1.08557      .   S
    C96    O160      1.37040      .   S
    C87    C88       1.39723      .   S
    C87    H12       1.08646      .   S
    C88    O159      1.36992      .   S
    H23    C100      1.08930      .   S
    C102   C103      1.39714      .   S
    C102   H24       1.08677      .   S
    C103   O161      1.37006      .   S
    C113   C112      1.39332      .   S
    C113   H32       1.08816      .   S
    C112   H31       1.08919      .   S
    O160   C100      1.42858      .   S
    O159   C93       1.43196      .   S
    C100   H21       1.10097      .   S
    C100   H22       1.11074      .   S
    O161   C107      1.43198      .   S
    H28    C107      1.10158  1_455   S
    H17    C93       1.10225  1_545   S
