# CIF file generated by openbabel 2.4.90, see http://openbabel.sf.net
data_I
_chemical_name_common ''
_cell_length_a 17.288
_cell_length_b 17.276
_cell_length_c 17.335
_cell_angle_alpha 85.834
_cell_angle_beta 86.336
_cell_angle_gamma 86.54
_space_group_name_H-M_alt 'P 1'
_space_group_name_Hall 'P 1'
loop_
    _symmetry_equiv_pos_as_xyz
    x,y,z
loop_
    _atom_site_label
    _atom_site_type_symbol
    _atom_site_fract_x
    _atom_site_fract_y
    _atom_site_fract_z
    _atom_site_occupancy
    C0      C    0.82755   0.82572   0.60743   1.000
    C1      C    0.82291   0.81349   0.02775   1.000
    C2      C    0.60826   0.82772   0.82458   1.000
    C3      C    0.02625   0.82539   0.81387   1.000
    C4      C    0.82464   0.60898   0.82760   1.000
    C5      C    0.81333   0.02704   0.82209   1.000
    C6      C    0.17245   0.17429   0.39256   1.000
    C7      C    0.17710   0.18656   0.97225   1.000
    C8      C    0.39174   0.17243   0.17525   1.000
    C9      C    0.97375   0.17467   0.18613   1.000
    C10     C    0.17533   0.39106   0.17236   1.000
    C11     C    0.18665   0.97299   0.17791   1.000
