# CIF file generated by openbabel 2.4.90, see http://openbabel.sf.net
data_I
_chemical_name_common ''
_cell_length_a 17.288
_cell_length_b 17.276
_cell_length_c 17.335
_cell_angle_alpha 85.834
_cell_angle_beta 86.336
_cell_angle_gamma 86.54
_space_group_name_H-M_alt 'P 1'
_space_group_name_Hall 'P 1'
loop_
    _symmetry_equiv_pos_as_xyz
    x,y,z
loop_
    _atom_site_label
    _atom_site_type_symbol
    _atom_site_fract_x
    _atom_site_fract_y
    _atom_site_fract_z
    _atom_site_occupancy
    C0      C    0.88042   0.88706   0.74724   1.000
    C1      C    0.74958   0.88050   0.88660   1.000
    C2      C    0.88629   0.74980   0.88283   1.000
    C3      C    0.75645   0.75721   0.75664   1.000
    C4      C    0.11956   0.11296   0.25275   1.000
    C5      C    0.25041   0.11952   0.11339   1.000
    C6      C    0.11371   0.25023   0.11717   1.000
    C7      C    0.24353   0.24283   0.24335   1.000
    C8      C    0.91620   0.91144   0.50540   1.000
    C9      C    0.74463   0.74721   0.37655   1.000
    C10     C    0.74226   0.74327   0.52121   1.000
    C11     C    0.00000   0.00969   0.33342   1.000
    C12     C    0.93644   0.01618   0.41717   1.000
    C13     C    0.01677   0.94498   0.41778   1.000
    C14     C    0.71670   0.88088   0.12199   1.000
    C15     C    0.94514   0.77080   0.26030   1.000
    C16     C    0.94177   0.76114   0.11828   1.000
    C17     C    0.60094   0.94880   0.28540   1.000
    C18     C    0.65192   0.96877   0.19353   1.000
    C19     C    0.61264   0.87539   0.21675   1.000
    C20     C    0.50781   0.91502   0.91116   1.000
    C21     C    0.37474   0.74841   0.74592   1.000
    C22     C    0.51977   0.74527   0.74155   1.000
    C23     C    0.33685   0.00000   0.00916   1.000
    C24     C    0.42031   0.93482   0.01585   1.000
    C25     C    0.42105   0.01598   0.94474   1.000
    C26     C    0.12107   0.71865   0.88110   1.000
    C27     C    0.25984   0.94770   0.76970   1.000
    C28     C    0.11736   0.94483   0.76056   1.000
    C29     C    0.28456   0.60233   0.95028   1.000
    C30     C    0.19312   0.65393   0.96955   1.000
    C31     C    0.21492   0.61418   0.87719   1.000
    C32     C    0.90996   0.50750   0.91667   1.000
    C33     C    0.75071   0.37646   0.74200   1.000
    C34     C    0.74518   0.52151   0.74083   1.000
    C35     C    0.00891   0.33630   0.00000   1.000
    C36     C    0.01557   0.42088   0.93692   1.000
    C37     C    0.94360   0.41968   0.01659   1.000
    C38     C    0.87973   0.12330   0.71487   1.000
    C39     C    0.77466   0.25878   0.94488   1.000
    C40     C    0.76394   0.11639   0.94169   1.000
    C41     C    0.94914   0.28825   0.59902   1.000
    C42     C    0.96904   0.19630   0.65075   1.000
    C43     C    0.87603   0.21812   0.61119   1.000
    C44     C    0.08378   0.08859   0.49454   1.000
    C45     C    0.25539   0.25277   0.62345   1.000
    C46     C    0.25775   0.25672   0.47800   1.000
    C47     C    0.99781   0.99034   0.66658   1.000
    C48     C    0.06353   0.98385   0.58283   1.000
    C49     C    0.98320   0.05505   0.58222   1.000
    C50     C    0.28331   0.11915   0.87801   1.000
    C51     C    0.05485   0.22918   0.73971   1.000
    C52     C    0.05823   0.23885   0.88172   1.000
    C53     C    0.39908   0.05123   0.71458   1.000
    C54     C    0.34810   0.03127   0.80640   1.000
    C55     C    0.38737   0.12466   0.78320   1.000
    C56     C    0.49221   0.08498   0.08886   1.000
    C57     C    0.62523   0.25186   0.25386   1.000
    C58     C    0.48021   0.25499   0.25822   1.000
    C59     C    0.66315   0.99876   0.99090   1.000
    C60     C    0.57969   0.06510   0.98419   1.000
    C61     C    0.57896   0.98401   0.05538   1.000
    C62     C    0.87896   0.28148   0.11895   1.000
    C63     C    0.74012   0.05240   0.23015   1.000
    C64     C    0.88259   0.05523   0.23934   1.000
    C65     C    0.71552   0.39787   0.04975   1.000
    C66     C    0.80694   0.34623   0.03046   1.000
    C67     C    0.78518   0.38597   0.12282   1.000
    C68     C    0.09004   0.49253   0.08333   1.000
    C69     C    0.24927   0.62356   0.25742   1.000
    C70     C    0.25480   0.47851   0.25918   1.000
    C71     C    0.99108   0.66372   0.99725   1.000
    C72     C    0.98444   0.57915   0.06307   1.000
    C73     C    0.05641   0.58035   0.98341   1.000
    C74     C    0.12024   0.87673   0.28513   1.000
    C75     C    0.22534   0.74125   0.05514   1.000
    C76     C    0.23605   0.88364   0.05833   1.000
    C77     C    0.05084   0.71177   0.40098   1.000
    C78     C    0.03094   0.80371   0.34927   1.000
    C79     C    0.12395   0.78190   0.38882   1.000
    C80     C    0.82755   0.82572   0.60743   1.000
    C81     C    0.82956   0.82704   0.52120   1.000
    C82     C    0.87954   0.87559   0.47601   1.000
    C83     C    0.88089   0.87755   0.39523   1.000
    C84     C    0.83220   0.83043   0.35865   1.000
    C85     C    0.78250   0.78297   0.40504   1.000
    C86     C    0.78085   0.78053   0.48552   1.000
    C87     C    0.97317   0.97640   0.38170   1.000
    C88     C    0.82291   0.81349   0.02775   1.000
    C89     C    0.82798   0.81969   0.11245   1.000
    C90     C    0.76570   0.85673   0.15376   1.000
    C91     C    0.76758   0.86186   0.23347   1.000
    C92     C    0.83261   0.83015   0.27299   1.000
    C93     C    0.89493   0.79526   0.23017   1.000
    C94     C    0.89320   0.78920   0.15059   1.000
    C95     C    0.63998   0.92384   0.24035   1.000
    C96     C    0.60826   0.82772   0.82458   1.000
    C97     C    0.52175   0.83035   0.82609   1.000
    C98     C    0.47747   0.87945   0.87509   1.000
    C99     C    0.39645   0.88139   0.87715   1.000
    C100    C    0.35864   0.83402   0.82982   1.000
    C101    C    0.40413   0.78524   0.78180   1.000
    C102    C    0.48484   0.78313   0.77923   1.000
    C103    C    0.38473   0.97223   0.97609   1.000
    C104    C    0.02625   0.82539   0.81387   1.000
    C105    C    0.11136   0.83052   0.81962   1.000
    C106    C    0.15294   0.76785   0.85679   1.000
    C107    C    0.23295   0.76950   0.86170   1.000
    C108    C    0.27265   0.83473   0.82971   1.000
    C109    C    0.22963   0.89737   0.79450   1.000
    C110    C    0.14970   0.89588   0.78874   1.000
    C111    C    0.23945   0.64158   0.92400   1.000
    C112    C    0.82464   0.60898   0.82760   1.000
    C113    C    0.82715   0.52244   0.82915   1.000
    C114    C    0.87524   0.47755   0.87940   1.000
    C115    C    0.87808   0.39649   0.88047   1.000
    C116    C    0.83231   0.35921   0.83111   1.000
    C117    C    0.78544   0.40538   0.78098   1.000
    C118    C    0.78210   0.48611   0.77968   1.000
    C119    C    0.97569   0.38428   0.97339   1.000
    C120    C    0.81333   0.02704   0.82209   1.000
    C121    C    0.82039   0.11205   0.82703   1.000
    C122    C    0.85672   0.15448   0.76426   1.000
    C123    C    0.86246   0.23447   0.76602   1.000
    C124    C    0.83213   0.27324   0.83151   1.000
    C125    C    0.79811   0.22928   0.89433   1.000
    C126    C    0.79141   0.14946   0.89269   1.000
    C127    C    0.92413   0.24262   0.63834   1.000
    C128    C    0.17245   0.17429   0.39256   1.000
    C129    C    0.17044   0.17297   0.47877   1.000
    C130    C    0.12045   0.12443   0.52398   1.000
    C131    C    0.11910   0.12246   0.60477   1.000
    C132    C    0.16780   0.16958   0.64135   1.000
    C133    C    0.21751   0.21702   0.59496   1.000
    C134    C    0.21915   0.21947   0.51440   1.000
    C135    C    0.02680   0.02363   0.61830   1.000
    C136    C    0.17710   0.18656   0.97225   1.000
    C137    C    0.17202   0.18033   0.88756   1.000
    C138    C    0.23430   0.14329   0.84624   1.000
    C139    C    0.23243   0.13816   0.76650   1.000
    C140    C    0.16739   0.16985   0.72701   1.000
    C141    C    0.10507   0.20473   0.76984   1.000
    C142    C    0.10680   0.21080   0.84941   1.000
    C143    C    0.36004   0.07620   0.75965   1.000
    C144    C    0.39174   0.17243   0.17525   1.000
    C145    C    0.47824   0.16978   0.17380   1.000
    C146    C    0.52254   0.12061   0.12488   1.000
    C147    C    0.60356   0.11869   0.12282   1.000
    C148    C    0.64136   0.16613   0.17008   1.000
    C149    C    0.59585   0.21498   0.21795   1.000
    C150    C    0.51515   0.21708   0.22059   1.000
    C151    C    0.61528   0.02774   0.02399   1.000
    C152    C    0.97375   0.17467   0.18613   1.000
    C153    C    0.88863   0.16958   0.18030   1.000
    C154    C    0.84707   0.23228   0.14323   1.000
    C155    C    0.76707   0.23066   0.13823   1.000
    C156    C    0.72734   0.16541   0.17021   1.000
    C157    C    0.77034   0.10274   0.20531   1.000
    C158    C    0.85027   0.10420   0.21110   1.000
    C159    C    0.76062   0.35859   0.07512   1.000
    C160    C    0.17533   0.39106   0.17236   1.000
    C161    C    0.17283   0.47759   0.17085   1.000
    C162    C    0.12475   0.52248   0.12057   1.000
    C163    C    0.12191   0.60354   0.11953   1.000
    C164    C    0.16767   0.64081   0.16890   1.000
    C165    C    0.21455   0.59465   0.21900   1.000
    C166    C    0.21788   0.51392   0.22033   1.000
    C167    C    0.02431   0.61575   0.02660   1.000
    C168    C    0.18665   0.97299   0.17791   1.000
    C169    C    0.17959   0.88797   0.17290   1.000
    C170    C    0.14326   0.84555   0.23575   1.000
    C171    C    0.13752   0.76555   0.23398   1.000
    C172    C    0.16786   0.72679   0.16850   1.000
    C173    C    0.20189   0.77074   0.10568   1.000
    C174    C    0.20858   0.85057   0.10732   1.000
    C175    C    0.07585   0.75739   0.36167   1.000
    C176    C    0.78035   0.78070   0.64501   1.000
    C177    C    0.87311   0.86981   0.63703   1.000
    C178    C    0.92720   0.92377   0.34680   1.000
    C179    C    0.76427   0.84840   0.99638   1.000
    C180    C    0.87706   0.77323   0.99272   1.000
    C181    C    0.70910   0.89703   0.27781   1.000
    C182    C    0.64488   0.78226   0.77813   1.000
    C183    C    0.63899   0.87086   0.86980   1.000
    C184    C    0.34895   0.92709   0.92364   1.000
    C185    C    0.99542   0.76634   0.84951   1.000
    C186    C    0.99044   0.87950   0.77343   1.000
    C187    C    0.27739   0.71048   0.89694   1.000
    C188    C    0.77987   0.64588   0.78004   1.000
    C189    C    0.86726   0.63942   0.87372   1.000
    C190    C    0.92399   0.34856   0.92720   1.000
    C191    C    0.84681   0.99645   0.76282   1.000
    C192    C    0.77372   0.99111   0.87688   1.000
    C193    C    0.89686   0.27983   0.70694   1.000
    C194    C    0.81841   0.81837   0.81806   1.000
    C195    C    0.21968   0.21928   0.35497   1.000
    C196    C    0.12687   0.13021   0.36297   1.000
    C197    C    0.07278   0.07626   0.65316   1.000
    C198    C    0.23577   0.15170   0.00362   1.000
    C199    C    0.12292   0.22678   0.00720   1.000
    C200    C    0.29091   0.10299   0.72219   1.000
    C201    C    0.35511   0.21815   0.22143   1.000
    C202    C    0.36103   0.12905   0.13017   1.000
    C203    C    0.65106   0.07294   0.07638   1.000
    C204    C    0.00460   0.23371   0.15050   1.000
    C205    C    0.00953   0.12053   0.22657   1.000
    C206    C    0.72265   0.28970   0.10307   1.000
    C207    C    0.22008   0.35416   0.21998   1.000
    C208    C    0.13273   0.36061   0.12627   1.000
    C209    C    0.07600   0.65147   0.07280   1.000
    C210    C    0.15316   0.00358   0.23718   1.000
    C211    C    0.22625   0.00892   0.12311   1.000
    C212    C    0.10312   0.72019   0.29307   1.000
    C213    C    0.18158   0.18164   0.18194   1.000
    O214    O    0.99230   0.36029   0.98669   1.000
    O215    O    0.24309   0.13561   0.05850   1.000
    O216    O    0.20643   0.16913   0.98793   1.000
    O217    O    0.11832   0.23850   0.06218   1.000
    O218    O    0.15001   0.20667   0.98972   1.000
    O219    O    0.36079   0.98611   0.99262   1.000
    O220    O    0.40252   0.95352   0.99597   1.000
    O221    O    0.95964   0.40198   0.99499   1.000
    O222    O    0.59712   0.00587   0.03968   1.000
    O223    O    0.63317   0.05034   0.05018   1.000
    O224    O    0.59749   0.04642   0.00409   1.000
    O225    O    0.63922   0.01324   0.00744   1.000
    O226    O    0.00438   0.59745   0.04483   1.000
    O227    O    0.05016   0.63361   0.04970   1.000
    O228    O    0.04036   0.59805   0.00500   1.000
    O229    O    0.00770   0.63973   0.01192   1.000
    O230    O    0.82544   0.81659   0.07010   1.000
    O231    O    0.84998   0.79336   0.01023   1.000
    O232    O    0.79359   0.83095   0.01206   1.000
    O233    O    0.78378   0.35241   0.05279   1.000
    O234    O    0.73807   0.37823   0.06243   1.000
    O235    O    0.21362   0.75600   0.08041   1.000
    O236    O    0.22231   0.86710   0.08282   1.000
    O237    O    0.09896   0.62751   0.09616   1.000
    O238    O    0.74163   0.32415   0.08909   1.000
    O239    O    0.77290   0.37228   0.09897   1.000
    O240    O    0.62731   0.09581   0.09960   1.000
    O241    O    0.10739   0.50751   0.10195   1.000
    O242    O    0.50737   0.10279   0.10687   1.000
    O243    O    0.74486   0.26018   0.12065   1.000
    O244    O    0.20523   0.81066   0.10650   1.000
    O245    O    0.18488   0.74877   0.13709   1.000
    O246    O    0.19408   0.86927   0.14011   1.000
    O247    O    0.86059   0.80444   0.13152   1.000
    O248    O    0.79684   0.83821   0.13310   1.000
    O249    O    0.23833   0.06422   0.11825   1.000
    O250    O    0.30572   0.12429   0.12178   1.000
    O251    O    0.21600   0.15058   0.14766   1.000
    O252    O    0.12322   0.30542   0.12172   1.000
    O253    O    0.05916   0.24197   0.13383   1.000
    O254    O    0.91748   0.77517   0.13443   1.000
    O255    O    0.86302   0.25688   0.13109   1.000
    O256    O    0.12333   0.56301   0.12005   1.000
    O257    O    0.14479   0.62218   0.14421   1.000
    O258    O    0.14879   0.50004   0.14571   1.000
    O259    O    0.74120   0.86881   0.13787   1.000
    O260    O    0.56305   0.11965   0.12385   1.000
    O261    O    0.62246   0.14241   0.14645   1.000
    O262    O    0.20645   0.99095   0.15051   1.000
    O263    O    0.50039   0.14520   0.14934   1.000
    O264    O    0.15403   0.37583   0.14931   1.000
    O265    O    0.37638   0.15074   0.15271   1.000
    O266    O    0.80707   0.23147   0.14073   1.000
    O267    O    0.74720   0.19804   0.15422   1.000
    O268    O    0.86785   0.20093   0.16176   1.000
    O269    O    0.98917   0.20419   0.16831   1.000
    O270    O    0.89406   0.79223   0.19038   1.000
    O271    O    0.76664   0.85930   0.19361   1.000
    O272    O    0.16777   0.68380   0.16870   1.000
    O273    O    0.15269   0.74617   0.20124   1.000
    O274    O    0.19111   0.61773   0.19395   1.000
    O275    O    0.68435   0.16577   0.17014   1.000
    O276    O    0.61861   0.19055   0.19401   1.000
    O277    O    0.74884   0.13408   0.18776   1.000
    O278    O    0.17408   0.43432   0.17160   1.000
    O279    O    0.19535   0.49575   0.19559   1.000
    O280    O    0.19771   0.37261   0.19617   1.000
    O281    O    0.18312   0.93048   0.17540   1.000
    O282    O    0.16142   0.86676   0.20432   1.000
    O283    O    0.43499   0.17111   0.17452   1.000
    O284    O    0.49669   0.19343   0.19719   1.000
    O285    O    0.37342   0.19529   0.19834   1.000
    O286    O    0.16991   0.98828   0.20754   1.000
    O287    O    0.93119   0.17212   0.18321   1.000
    O288    O    0.86945   0.13689   0.19570   1.000
    O289    O    0.15057   0.14730   0.21734   1.000
    O290    O    0.99164   0.14760   0.20635   1.000
    O291    O    0.64595   0.94630   0.21694   1.000
    O292    O    0.81030   0.10347   0.20820   1.000
    O293    O    0.75523   0.07757   0.21773   1.000
    O294    O    0.86643   0.07972   0.22522   1.000
    O295    O    0.62631   0.89961   0.22855   1.000
    O296    O    0.55550   0.21603   0.21927   1.000
    O297    O    0.61054   0.23342   0.23590   1.000
    O298    O    0.21621   0.55428   0.21966   1.000
    O299    O    0.23191   0.60910   0.23821   1.000
    O300    O    0.23181   0.29849   0.23166   1.000
    O301    O    0.23634   0.49621   0.23975   1.000
    O302    O    0.49768   0.23603   0.23940   1.000
    O303    O    0.29932   0.23049   0.23239   1.000
    O304    O    0.06455   0.11675   0.23966   1.000
    O305    O    0.92003   0.78303   0.24523   1.000
    O306    O    0.86377   0.81271   0.25158   1.000
    O307    O    0.80009   0.84600   0.25323   1.000
    O308    O    0.73834   0.87944   0.25564   1.000
    O309    O    0.14039   0.80555   0.23486   1.000
    O310    O    0.12032   0.74287   0.26352   1.000
    O311    O    0.13175   0.86114   0.26044   1.000
    O312    O    0.13636   0.05827   0.24496   1.000
    O313    O    0.67454   0.91043   0.25908   1.000
    O314    O    0.62046   0.93632   0.26287   1.000
    O315    O    0.23161   0.23105   0.29916   1.000
    O316    O    0.12321   0.12159   0.30786   1.000
    O317    O    0.83240   0.83029   0.31582   1.000
    O318    O    0.08949   0.73879   0.32737   1.000
    O319    O    0.98659   0.99304   0.35756   1.000
    O320    O    0.95019   0.95008   0.36425   1.000
    O321    O    0.90405   0.90066   0.37101   1.000
    O322    O    0.05339   0.78055   0.35547   1.000
    O323    O    0.19606   0.19679   0.37376   1.000
    O324    O    0.85654   0.85399   0.37694   1.000
    O325    O    0.80735   0.80670   0.38184   1.000
    O326    O    0.09990   0.76965   0.37524   1.000
    O327    O    0.06335   0.73458   0.38132   1.000
    O328    O    0.14966   0.15225   0.37776   1.000
    O329    O    0.76356   0.76509   0.39079   1.000
    O330    O    0.95481   0.99629   0.39943   1.000
    O331    O    0.99497   0.96069   0.39974   1.000
    O332    O    0.17144   0.17363   0.43566   1.000
    O333    O    0.88021   0.87657   0.43562   1.000
    O334    O    0.78167   0.78175   0.44528   1.000
    O335    O    0.89787   0.89351   0.49070   1.000
    O336    O    0.85455   0.85132   0.49860   1.000
    O337    O    0.23845   0.23810   0.49620   1.000
    O338    O    0.19480   0.19622   0.49658   1.000
    O339    O    0.14545   0.14870   0.50137   1.000
    O340    O    0.80521   0.80378   0.50336   1.000
    O341    O    0.76156   0.76190   0.50336   1.000
    O342    O    0.10212   0.10651   0.50926   1.000
    O343    O    0.21833   0.21825   0.55468   1.000
    O344    O    0.82855   0.82638   0.56431   1.000
    O345    O    0.11978   0.12345   0.56437   1.000
    O346    O    0.00500   0.03934   0.60026   1.000
    O347    O    0.04516   0.00374   0.60056   1.000
    O348    O    0.23645   0.23490   0.60920   1.000
    O349    O    0.19266   0.19330   0.61815   1.000
    O350    O    0.93663   0.26544   0.61868   1.000
    O351    O    0.14345   0.14602   0.62306   1.000
    O352    O    0.09594   0.09936   0.62896   1.000
    O353    O    0.85033   0.84777   0.62223   1.000
    O354    O    0.80395   0.80321   0.62622   1.000
    O355    O    0.90008   0.23037   0.62476   1.000
    O356    O    0.04979   0.04994   0.63573   1.000
    O357    O    0.01231   0.00699   0.64244   1.000
    O358    O    0.87676   0.87844   0.69213   1.000
    O359    O    0.94658   0.21946   0.64454   1.000
    O360    O    0.91049   0.26123   0.67264   1.000
    O361    O    0.16760   0.16971   0.68418   1.000
    O362    O    0.76840   0.76896   0.70082   1.000
    O363    O    0.87966   0.25715   0.73648   1.000
    O364    O    0.37956   0.06372   0.73711   1.000
    O365    O    0.86822   0.13889   0.73956   1.000
    O366    O    0.32548   0.08959   0.74092   1.000
    O367    O    0.26167   0.12057   0.74434   1.000
    O368    O    0.19991   0.15400   0.74675   1.000
    O369    O    0.13623   0.18729   0.74842   1.000
    O370    O    0.07996   0.21695   0.75477   1.000
    O371    O    0.76364   0.50381   0.76025   1.000
    O372    O    0.50230   0.76420   0.76039   1.000
    O373    O    0.76807   0.39092   0.76149   1.000
    O374    O    0.38944   0.76683   0.76386   1.000
    O375    O    0.86361   0.94176   0.75503   1.000
    O376    O    0.93543   0.88328   0.76033   1.000
    O377    O    0.84941   0.85272   0.78265   1.000
    O378    O    0.70066   0.76974   0.76738   1.000
    O379    O    0.76816   0.70155   0.76834   1.000
    O380    O    0.37370   0.10043   0.77142   1.000
    O381    O    0.35407   0.05373   0.78302   1.000
    O382    O    0.13353   0.92035   0.77465   1.000
    O383    O    0.83007   0.01174   0.79245   1.000
    O384    O    0.85959   0.19447   0.76514   1.000
    O385    O    0.83855   0.13327   0.79564   1.000
    O386    O    0.84729   0.25385   0.79876   1.000
    O387    O    0.23337   0.14072   0.80637   1.000
    O388    O    0.24474   0.92254   0.78210   1.000
    O389    O    0.10593   0.20776   0.80962   1.000
    O390    O    0.00834   0.85245   0.79365   1.000
    O391    O    0.62657   0.80499   0.80135   1.000
    O392    O    0.44449   0.78419   0.78051   1.000
    O393    O    0.50329   0.80674   0.80266   1.000
    O394    O    0.78377   0.44574   0.78033   1.000
    O395    O    0.80463   0.50427   0.80441   1.000
    O396    O    0.80226   0.62743   0.80382   1.000
    O397    O    0.80887   0.38230   0.80604   1.000
    O398    O    0.38138   0.80963   0.80581   1.000
    O399    O    0.18967   0.89663   0.79162   1.000
    O400    O    0.13053   0.86320   0.80418   1.000
    O401    O    0.25114   0.86605   0.81210   1.000
    O402    O    0.06880   0.82795   0.81674   1.000
    O403    O    0.01083   0.79586   0.83169   1.000
    O404    O    0.78400   0.84943   0.85233   1.000
    O405    O    0.13215   0.79918   0.83820   1.000
    O406    O    0.81686   0.06955   0.82456   1.000
    O407    O    0.79352   0.00908   0.84948   1.000
    O408    O    0.56501   0.82903   0.82533   1.000
    O409    O    0.62362   0.84929   0.84719   1.000
    O410    O    0.49961   0.85490   0.85059   1.000
    O411    O    0.80590   0.13076   0.85986   1.000
    O412    O    0.82590   0.56571   0.82837   1.000
    O413    O    0.84595   0.62420   0.85066   1.000
    O414    O    0.85120   0.50000   0.85427   1.000
    O415    O    0.31564   0.83438   0.82976   1.000
    O416    O    0.25280   0.80211   0.84570   1.000
    O417    O    0.37754   0.85771   0.85348   1.000
    O418    O    0.83222   0.31623   0.83131   1.000
    O419    O    0.85520   0.37785   0.85579   1.000
    O420    O    0.81512   0.25126   0.86292   1.000
    O421    O    0.25881   0.13122   0.86212   1.000
    O422    O    0.20316   0.16181   0.86690   1.000
    O423    O    0.08251   0.22483   0.86556   1.000
    O424    O    0.13941   0.19557   0.86848   1.000
    O425    O    0.94085   0.75807   0.86617   1.000
    O426    O    0.19295   0.76867   0.85924   1.000
    O427    O    0.13701   0.74325   0.86894   1.000
    O428    O    0.25517   0.73999   0.87932   1.000
    O429    O    0.69428   0.87568   0.87820   1.000
    O430    O    0.87677   0.69461   0.87827   1.000
    O431    O    0.43696   0.88042   0.87612   1.000
    O432    O    0.49264   0.89724   0.89312   1.000
    O433    O    0.76165   0.93581   0.88174   1.000
    O434    O    0.37270   0.90424   0.90039   1.000
    O435    O    0.22719   0.62788   0.90059   1.000
    O436    O    0.87666   0.43702   0.87993   1.000
    O437    O    0.89260   0.49253   0.89803   1.000
    O438    O    0.90104   0.37253   0.90383   1.000
    O439    O    0.88167   0.76152   0.93777   1.000
    O440    O    0.75693   0.86445   0.94149   1.000
    O441    O    0.17456   0.18344   0.92990   1.000
    O442    O    0.79476   0.18937   0.89351   1.000
    O443    O    0.77768   0.13293   0.91719   1.000
    O444    O    0.78638   0.24403   0.91960   1.000
    O445    O    0.25843   0.67603   0.91047   1.000
    O446    O    0.36684   0.94966   0.94986   1.000
    O447    O    0.26201   0.62196   0.93714   1.000
    O448    O    0.21629   0.64776   0.94677   1.000
    O449    O    0.94984   0.36642   0.95029   1.000
    O450    O    0.99563   0.40258   0.95515   1.000
    O451    O    0.40289   0.99411   0.96041   1.000
    O452    O    0.85235   0.78408   0.85044   1.000
    O453    O    0.78743   0.78779   0.78735   1.000
    O454    O    0.14765   0.21593   0.14955   1.000
    O455    O    0.21256   0.21223   0.21264   1.000
loop_
    _geom_bond_atom_site_label_1
    _geom_bond_atom_site_label_2
    _geom_bond_distance
    _geom_bond_site_symmetry_2
    _ccdc_geom_bond_type
    C35    O214      0.53635  1_454   S
    C119   O214      0.53635      .   S
    C198   O215      0.98552      .   S
    C5     O215      0.98552      .   S
    C198   O216      0.63954  1_554   S
    C136   O216      0.63954      .   S
    C199   O217      0.98604      .   S
    C6     O217      0.98604      .   S
    C199   O218      0.63982  1_554   S
    C136   O218      0.63982      .   S
    C23    O219      0.54204  1_544   S
    C103   O219      0.54204      .   S
    C24    O220      0.55061  1_554   S
    C103   O220      0.55061      .   S
    C37    O221      0.55115  1_554   S
    C119   O221      0.55115      .   S
    C151   O222      0.55109      .   S
    C61    O222      0.55109  1_565   S
    C151   O223      0.71597      .   S
    C203   O223      0.71597      .   S
    C151   O224      0.55064      .   S
    C60    O224      0.55064  1_556   S
    C151   O225      0.54674      .   S
    C59    O225      0.54674  1_566   S
    C167   O226      0.55081      .   S
    C72    O226      0.55081  1_655   S
    C167   O227      0.71600      .   S
    C209   O227      0.71600      .   S
    C167   O228      0.55109      .   S
    C73    O228      0.55109  1_556   S
    C167   O229      0.54647      .   S
    C71    O229      0.54647  1_656   S
    C88    O230      0.74422      .   S
    C89    O230      0.74422      .   S
    C88    O231      0.64015      .   S
    C180   O231      0.64015  1_556   S
    C88    O232      0.63954      .   S
    C179   O232      0.63954  1_556   S
    C66    O233      0.55011      .   S
    C159   O233      0.55011      .   S
    C65    O234      0.54731      .   S
    C159   O234      0.54731      .   S
    C75    O235      0.54455      .   S
    C173   O235      0.54455      .   S
    C76    O236      0.54403      .   S
    C174   O236      0.54403      .   S
    C209   O237      0.68504      .   S
    C163   O237      0.68504      .   S
    C159   O238      0.71620      .   S
    C206   O238      0.71620      .   S
    C159   O239      0.55084      .   S
    C67    O239      0.55084      .   S
    C203   O240      0.68499      .   S
    C147   O240      0.68499      .   S
    C68    O241      0.54319      .   S
    C162   O241      0.54319      .   S
    C56    O242      0.54325      .   S
    C146   O242      0.54325      .   S
    C206   O243      0.68496      .   S
    C155   O243      0.68496      .   S
    C173   O244      0.69666      .   S
    C174   O244      0.69666      .   S
    C173   O245      0.70008      .   S
    C172   O245      0.70008      .   S
    C174   O246      0.69928      .   S
    C169   O246      0.69928      .   S
    C89    O247      0.69976      .   S
    C94    O247      0.69976      .   S
    C89    O248      0.70117      .   S
    C90    O248      0.70117      .   S
    C5     O249      0.98671      .   S
    C211   O249      0.98671      .   S
    C5     O250      0.98547      .   S
    C202   O250      0.98547      .   S
    C5     O251      0.97856      .   S
    C213   O251      0.97856      .   S
    C6     O252      0.98684      .   S
    C208   O252      0.98684      .   S
    C6     O253      0.98429      .   S
    C204   O253      0.98429      .   S
    C16    O254      0.54404      .   S
    C94    O254      0.54404      .   S
    C62    O255      0.54282      .   S
    C154   O255      0.54282      .   S
    C163   O256      0.69858      .   S
    C162   O256      0.69858      .   S
    C163   O257      0.70729      .   S
    C164   O257      0.70729      .   S
    C162   O258      0.70155      .   S
    C161   O258      0.70155      .   S
    C14    O259      0.54284      .   S
    C90    O259      0.54284      .   S
    C147   O260      0.69861      .   S
    C146   O260      0.69861      .   S
    C147   O261      0.70725      .   S
    C148   O261      0.70725      .   S
    C211   O262      0.64013  1_545   S
    C168   O262      0.64013      .   S
    C146   O263      0.70188      .   S
    C145   O263      0.70188      .   S
    C208   O264      0.64043      .   S
    C160   O264      0.64043      .   S
    C202   O265      0.64040      .   S
    C144   O265      0.64040      .   S
    C155   O266      0.69674      .   S
    C154   O266      0.69674      .   S
    C155   O267      0.70773      .   S
    C156   O267      0.70773      .   S
    C154   O268      0.70111      .   S
    C153   O268      0.70111      .   S
    C204   O269      0.64001  1_455   S
    C152   O269      0.64001      .   S
    C94    O270      0.69671      .   S
    C93    O270      0.69671      .   S
    C90    O271      0.69678      .   S
    C91    O271      0.69678      .   S
    C172   O272      0.74252      .   S
    C164   O272      0.74252      .   S
    C172   O273      0.70781      .   S
    C171   O273      0.70781      .   S
    C164   O274      0.69972      .   S
    C165   O274      0.69972      .   S
    C148   O275      0.74294      .   S
    C156   O275      0.74294      .   S
    C148   O276      0.69961      .   S
    C149   O276      0.69961      .   S
    C156   O277      0.70000      .   S
    C157   O277      0.70000      .   S
    C161   O278      0.74566      .   S
    C160   O278      0.74566      .   S
    C161   O279      0.69977      .   S
    C166   O279      0.69977      .   S
    C160   O280      0.63876      .   S
    C207   O280      0.63876      .   S
    C169   O281      0.74514      .   S
    C168   O281      0.74514      .   S
    C169   O282      0.70192      .   S
    C170   O282      0.70192      .   S
    C145   O283      0.74603      .   S
    C144   O283      0.74603      .   S
    C145   O284      0.69963      .   S
    C150   O284      0.69963      .   S
    C144   O285      0.63884      .   S
    C201   O285      0.63884      .   S
    C168   O286      0.63953      .   S
    C210   O286      0.63953  1_545   S
    C153   O287      0.74485      .   S
    C152   O287      0.74485      .   S
    C153   O288      0.69964      .   S
    C158   O288      0.69964      .   S
    C213   O289      0.97955      .   S
    C4     O289      0.97955      .   S
    C152   O290      0.64017      .   S
    C205   O290      0.64017  1_455   S
    C18    O291      0.55008      .   S
    C95    O291      0.55008      .   S
    C157   O292      0.69686      .   S
    C158   O292      0.69686      .   S
    C157   O293      0.54461      .   S
    C63    O293      0.54461      .   S
    C158   O294      0.54439      .   S
    C64    O294      0.54439      .   S
    C19    O295      0.55080      .   S
    C95    O295      0.55080      .   S
    C149   O296      0.69569      .   S
    C150   O296      0.69569      .   S
    C149   O297      0.54515      .   S
    C57    O297      0.54515      .   S
    C165   O298      0.69545      .   S
    C166   O298      0.69545      .   S
    C165   O299      0.54525      .   S
    C69    O299      0.54525      .   S
    C207   O300      0.97998      .   S
    C7     O300      0.97998      .   S
    C166   O301      0.54386      .   S
    C70    O301      0.54386      .   S
    C150   O302      0.54389      .   S
    C58    O302      0.54389      .   S
    C201   O303      0.98454      .   S
    C7     O303      0.98454      .   S
    C205   O304      0.98905      .   S
    C4     O304      0.98905      .   S
    C93    O305      0.54466      .   S
    C15    O305      0.54466      .   S
    C93    O306      0.69990      .   S
    C92    O306      0.69990      .   S
    C91    O307      0.70761      .   S
    C92    O307      0.70761      .   S
    C91    O308      0.68491      .   S
    C181   O308      0.68491      .   S
    C171   O309      0.69712      .   S
    C170   O309      0.69712      .   S
    C171   O310      0.68536      .   S
    C212   O310      0.68536      .   S
    C170   O311      0.54286      .   S
    C74    O311      0.54286      .   S
    C210   O312      0.98778      .   S
    C4     O312      0.98778      .   S
    C95    O313      0.71640      .   S
    C181   O313      0.71640      .   S
    C95    O314      0.54720      .   S
    C17    O314      0.54720      .   S
    C7     O315      0.98532      .   S
    C195   O315      0.98532      .   S
    C4     O316      0.98407      .   S
    C196   O316      0.98407      .   S
    C92    O317      0.74242      .   S
    C84    O317      0.74242      .   S
    C212   O318      0.71628      .   S
    C175   O318      0.71628      .   S
    C11    O319      0.53828  1_445   S
    C87    O319      0.53828      .   S
    C178   O320      0.71640      .   S
    C87    O320      0.71640      .   S
    C178   O321      0.68504      .   S
    C83    O321      0.68504      .   S
    C78    O322      0.55020      .   S
    C175   O322      0.55020      .   S
    C195   O323      0.63845      .   S
    C128   O323      0.63845      .   S
    C84    O324      0.70704      .   S
    C83    O324      0.70704      .   S
    C84    O325      0.69963      .   S
    C85    O325      0.69963      .   S
    C175   O326      0.55083      .   S
    C79    O326      0.55083      .   S
    C175   O327      0.54730      .   S
    C77    O327      0.54730      .   S
    C196   O328      0.64123      .   S
    C128   O328      0.64123      .   S
    C9     O329      0.54513      .   S
    C85    O329      0.54513      .   S
    C87    O330      0.55057      .   S
    C12    O330      0.55057  1_545   S
    C87    O331      0.55124      .   S
    C13    O331      0.55124  1_455   S
    C128   O332      0.74559      .   S
    C129   O332      0.74559      .   S
    C83    O333      0.69850      .   S
    C82    O333      0.69850      .   S
    C85    O334      0.69561      .   S
    C86    O334      0.69561      .   S
    C82    O335      0.54295      .   S
    C8     O335      0.54295      .   S
    C82    O336      0.70164      .   S
    C81    O336      0.70164      .   S
    C46    O337      0.54694      .   S
    C134   O337      0.54694      .   S
    C129   O338      0.69936      .   S
    C134   O338      0.69936      .   S
    C129   O339      0.70173      .   S
    C130   O339      0.70173      .   S
    C86    O340      0.69960      .   S
    C81    O340      0.69960      .   S
    C86    O341      0.54391      .   S
    C10    O341      0.54391      .   S
    C44    O342      0.54319      .   S
    C130   O342      0.54319      .   S
    C134   O343      0.69630      .   S
    C133   O343      0.69630      .   S
    C81    O344      0.74576      .   S
    C80    O344      0.74576      .   S
    C130   O345      0.69859      .   S
    C131   O345      0.69859      .   S
    C49    O346      0.55124  1_655   S
    C135   O346      0.55124      .   S
    C48    O347      0.55057  1_565   S
    C135   O347      0.55057      .   S
    C133   O348      0.54513      .   S
    C45    O348      0.54513      .   S
    C133   O349      0.69963      .   S
    C132   O349      0.69963      .   S
    C41    O350      0.54733      .   S
    C127   O350      0.54733      .   S
    C131   O351      0.70703      .   S
    C132   O351      0.70703      .   S
    C131   O352      0.68486      .   S
    C197   O352      0.68486      .   S
    C80    O353      0.64127      .   S
    C177   O353      0.64127      .   S
    C80    O354      0.63840      .   S
    C176   O354      0.63840      .   S
    C43    O355      0.55083      .   S
    C127   O355      0.55083      .   S
    C135   O356      0.71626      .   S
    C197   O356      0.71626      .   S
    C135   O357      0.54623      .   S
    C47    O357      0.54623  1_665   S
    C177   O358      0.98397      .   S
    C0     O358      0.98397      .   S
    C127   O359      0.55021      .   S
    C42    O359      0.55021      .   S
    C127   O360      0.71632      .   S
    C193   O360      0.71632      .   S
    C132   O361      0.74241      .   S
    C140   O361      0.74241      .   S
    C176   O362      0.98539      .   S
    C3     O362      0.98539      .   S
    C193   O363      0.68528      .   S
    C123   O363      0.68528      .   S
    C53    O364      0.54733      .   S
    C143   O364      0.54733      .   S
    C38    O365      0.54291      .   S
    C122   O365      0.54291      .   S
    C200   O366      0.71642      .   S
    C143   O366      0.71642      .   S
    C200   O367      0.68477      .   S
    C139   O367      0.68477      .   S
    C140   O368      0.70748      .   S
    C139   O368      0.70748      .   S
    C140   O369      0.69994      .   S
    C141   O369      0.69994      .   S
    C51    O370      0.54467      .   S
    C141   O370      0.54467      .   S
    C34    O371      0.54387      .   S
    C118   O371      0.54387      .   S
    C22    O372      0.54387      .   S
    C102   O372      0.54387      .   S
    C33    O373      0.54858      .   S
    C117   O373      0.54858      .   S
    C21    O374      0.54471      .   S
    C101   O374      0.54471      .   S
    C0     O375      0.98781      .   S
    C191   O375      0.98781      .   S
    C0     O376      0.98905      .   S
    C186   O376      0.98905      .   S
    C0     O377      0.97959      .   S
    C194   O377      0.97959      .   S
    C3     O378      0.98454      .   S
    C182   O378      0.98454      .   S
    C3     O379      0.97998      .   S
    C188   O379      0.97998      .   S
    C143   O380      0.55063      .   S
    C55    O380      0.55063      .   S
    C143   O381      0.54965      .   S
    C54    O381      0.54965      .   S
    C28    O382      0.54408      .   S
    C110   O382      0.54408      .   S
    C191   O383      0.63955  1_565   S
    C120   O383      0.63955      .   S
    C122   O384      0.69711      .   S
    C123   O384      0.69711      .   S
    C122   O385      0.70141      .   S
    C121   O385      0.70141      .   S
    C123   O386      0.70787      .   S
    C124   O386      0.70787      .   S
    C139   O387      0.69705      .   S
    C138   O387      0.69705      .   S
    C27    O388      0.54437      .   S
    C109   O388      0.54437      .   S
    C141   O389      0.69663      .   S
    C142   O389      0.69663      .   S
    C186   O390      0.64014  1_655   S
    C104   O390      0.64014      .   S
    C182   O391      0.63885      .   S
    C96    O391      0.63885      .   S
    C102   O392      0.69571      .   S
    C101   O392      0.69571      .   S
    C102   O393      0.69965      .   S
    C97    O393      0.69965      .   S
    C118   O394      0.69547      .   S
    C117   O394      0.69547      .   S
    C118   O395      0.69973      .   S
    C113   O395      0.69973      .   S
    C188   O396      0.63854      .   S
    C112   O396      0.63854      .   S
    C117   O397      0.69989      .   S
    C116   O397      0.69989      .   S
    C101   O398      0.69999      .   S
    C100   O398      0.69999      .   S
    C110   O399      0.69687      .   S
    C109   O399      0.69687      .   S
    C110   O400      0.69970      .   S
    C105   O400      0.69970      .   S
    C109   O401      0.70027      .   S
    C108   O401      0.70027      .   S
    C104   O402      0.74478      .   S
    C105   O402      0.74478      .   S
    C104   O403      0.64000      .   S
    C185   O403      0.64000  1_655   S
    C194   O404      0.97855      .   S
    C1     O404      0.97855      .   S
    C105   O405      0.70138      .   S
    C106   O405      0.70138      .   S
    C120   O406      0.74506      .   S
    C121   O406      0.74506      .   S
    C120   O407      0.64010      .   S
    C192   O407      0.64010  1_565   S
    C96    O408      0.74603      .   S
    C97    O408      0.74603      .   S
    C96    O409      0.63997      .   S
    C183   O409      0.63997      .   S
    C97    O410      0.70188      .   S
    C98    O410      0.70188      .   S
    C121   O411      0.69982      .   S
    C126   O411      0.69982      .   S
    C112   O412      0.74565      .   S
    C113   O412      0.74565      .   S
    C112   O413      0.64067      .   S
    C189   O413      0.64067      .   S
    C113   O414      0.70142      .   S
    C114   O414      0.70142      .   S
    C108   O415      0.74297      .   S
    C100   O415      0.74297      .   S
    C108   O416      0.70759      .   S
    C107   O416      0.70759      .   S
    C100   O417      0.70727      .   S
    C99    O417      0.70727      .   S
    C116   O418      0.74253      .   S
    C124   O418      0.74253      .   S
    C116   O419      0.70727      .   S
    C115   O419      0.70727      .   S
    C124   O420      0.70005      .   S
    C125   O420      0.70005      .   S
    C138   O421      0.54284      .   S
    C50    O421      0.54284      .   S
    C138   O422      0.70122      .   S
    C137   O422      0.70122      .   S
    C142   O423      0.54404      .   S
    C52    O423      0.54404      .   S
    C142   O424      0.69979      .   S
    C137   O424      0.69979      .   S
    C185   O425      0.98443      .   S
    C2     O425      0.98443      .   S
    C106   O426      0.69667      .   S
    C107   O426      0.69667      .   S
    C106   O427      0.54279      .   S
    C26    O427      0.54279      .   S
    C107   O428      0.68520      .   S
    C187   O428      0.68520      .   S
    C183   O429      0.98553      .   S
    C1     O429      0.98553      .   S
    C189   O430      0.98685      .   S
    C2     O430      0.98685      .   S
    C98    O431      0.69862      .   S
    C99    O431      0.69862      .   S
    C98    O432      0.54323      .   S
    C20    O432      0.54323      .   S
    C192   O433      0.98669      .   S
    C1     O433      0.98669      .   S
    C99    O434      0.68496      .   S
    C184   O434      0.68496      .   S
    C31    O435      0.54465      .   S
    C111   O435      0.54465      .   S
    C114   O436      0.69857      .   S
    C115   O436      0.69857      .   S
    C114   O437      0.54339      .   S
    C32    O437      0.54339      .   S
    C115   O438      0.68503      .   S
    C190   O438      0.68503      .   S
    C2     O439      0.98533      .   S
    C180   O439      0.98533      .   S
    C1     O440      0.98552      .   S
    C179   O440      0.98552      .   S
    C137   O441      0.74417      .   S
    C136   O441      0.74417      .   S
    C126   O442      0.69666      .   S
    C125   O442      0.69666      .   S
    C126   O443      0.54408      .   S
    C40    O443      0.54408      .   S
    C125   O444      0.54460      .   S
    C39    O444      0.54460      .   S
    C187   O445      0.71429      .   S
    C111   O445      0.71429      .   S
    C184   O446      0.71598      .   S
    C103   O446      0.71598      .   S
    C111   O447      0.55049      .   S
    C29    O447      0.55049      .   S
    C111   O448      0.55537      .   S
    C30    O448      0.55537      .   S
    C190   O449      0.71599      .   S
    C119   O449      0.71599      .   S
    C36    O450      0.55079  1_455   S
    C119   O450      0.55079      .   S
    C25    O451      0.55113  1_545   S
    C103   O451      0.55113      .   S
    C194   O452      0.98084      .   S
    C2     O452      0.98084      .   S
    C194   O453      0.98021      .   S
    C3     O453      0.98021      .   S
    C213   O454      0.98086      .   S
    C6     O454      0.98086      .   S
    C213   O455      0.98024      .   S
    C7     O455      0.98024      .   S
