# CIF file generated by openbabel 2.4.90, see http://openbabel.sf.net
data_I
_chemical_name_common ''
_cell_length_a 17.288
_cell_length_b 17.276
_cell_length_c 17.335
_cell_angle_alpha 85.834
_cell_angle_beta 86.336
_cell_angle_gamma 86.54
_space_group_name_H-M_alt 'P 1'
_space_group_name_Hall 'P 1'
loop_
    _symmetry_equiv_pos_as_xyz
    x,y,z
loop_
    _atom_site_label
    _atom_site_type_symbol
    _atom_site_fract_x
    _atom_site_fract_y
    _atom_site_fract_z
    _atom_site_occupancy
    Zr0     Zr   0.88042   0.88706   0.74724   1.000
    Zr1     Zr   0.74958   0.88050   0.88660   1.000
    Zr2     Zr   0.88629   0.74980   0.88283   1.000
    Zr3     Zr   0.75645   0.75721   0.75664   1.000
    Zr4     Zr   0.11956   0.11296   0.25275   1.000
    Zr5     Zr   0.25041   0.11952   0.11339   1.000
    Zr6     Zr   0.11371   0.25023   0.11717   1.000
    Zr7     Zr   0.24353   0.24283   0.24335   1.000
    Zr8     Zr   0.82755   0.82572   0.60743   1.000
    Zr9     Zr   0.82291   0.81349   0.02775   1.000
    Zr10    Zr   0.60826   0.82772   0.82458   1.000
    Zr11    Zr   0.02625   0.82539   0.81387   1.000
    Zr12    Zr   0.82464   0.60898   0.82760   1.000
    Zr13    Zr   0.81333   0.02704   0.82209   1.000
    Zr14    Zr   0.17245   0.17429   0.39256   1.000
    Zr15    Zr   0.17710   0.18656   0.97225   1.000
    Zr16    Zr   0.39174   0.17243   0.17525   1.000
    Zr17    Zr   0.97375   0.17467   0.18613   1.000
    Zr18    Zr   0.17533   0.39106   0.17236   1.000
    Zr19    Zr   0.18665   0.97299   0.17791   1.000
    Zr20    Zr   0.78035   0.78070   0.64501   1.000
    Zr21    Zr   0.87311   0.86981   0.63703   1.000
    Zr22    Zr   0.76427   0.84840   0.99638   1.000
    Zr23    Zr   0.87706   0.77323   0.99272   1.000
    Zr24    Zr   0.64488   0.78226   0.77813   1.000
    Zr25    Zr   0.63899   0.87086   0.86980   1.000
    Zr26    Zr   0.99542   0.76634   0.84951   1.000
    Zr27    Zr   0.99044   0.87950   0.77343   1.000
    Zr28    Zr   0.77987   0.64588   0.78004   1.000
    Zr29    Zr   0.86726   0.63942   0.87372   1.000
    Zr30    Zr   0.84681   0.99645   0.76282   1.000
    Zr31    Zr   0.77372   0.99111   0.87688   1.000
    Zr32    Zr   0.81841   0.81837   0.81806   1.000
    Zr33    Zr   0.21968   0.21928   0.35497   1.000
    Zr34    Zr   0.12687   0.13021   0.36297   1.000
    Zr35    Zr   0.23577   0.15170   0.00362   1.000
    Zr36    Zr   0.12292   0.22678   0.00720   1.000
    Zr37    Zr   0.35511   0.21815   0.22143   1.000
    Zr38    Zr   0.36103   0.12905   0.13017   1.000
    Zr39    Zr   0.00460   0.23371   0.15050   1.000
    Zr40    Zr   0.00953   0.12053   0.22657   1.000
    Zr41    Zr   0.22008   0.35416   0.21998   1.000
    Zr42    Zr   0.13273   0.36061   0.12627   1.000
    Zr43    Zr   0.15316   0.00358   0.23718   1.000
    Zr44    Zr   0.22625   0.00892   0.12311   1.000
    Zr45    Zr   0.18158   0.18164   0.18194   1.000
    O46     O    0.24309   0.13561   0.05850   1.000
    O47     O    0.20643   0.16913   0.98793   1.000
    O48     O    0.11832   0.23850   0.06218   1.000
    O49     O    0.15001   0.20667   0.98972   1.000
    O50     O    0.84998   0.79336   0.01023   1.000
    O51     O    0.79359   0.83095   0.01206   1.000
    O52     O    0.23833   0.06422   0.11825   1.000
    O53     O    0.30572   0.12429   0.12178   1.000
    O54     O    0.21600   0.15058   0.14766   1.000
    O55     O    0.12322   0.30542   0.12172   1.000
    O56     O    0.05916   0.24197   0.13383   1.000
    O57     O    0.20645   0.99095   0.15051   1.000
    O58     O    0.15403   0.37583   0.14931   1.000
    O59     O    0.37638   0.15074   0.15271   1.000
    O60     O    0.98917   0.20419   0.16831   1.000
    O61     O    0.19771   0.37261   0.19617   1.000
    O62     O    0.37342   0.19529   0.19834   1.000
    O63     O    0.16991   0.98828   0.20754   1.000
    O64     O    0.15057   0.14730   0.21734   1.000
    O65     O    0.99164   0.14760   0.20635   1.000
    O66     O    0.23181   0.29849   0.23166   1.000
    O67     O    0.29932   0.23049   0.23239   1.000
    O68     O    0.06455   0.11675   0.23966   1.000
    O69     O    0.13636   0.05827   0.24496   1.000
    O70     O    0.23161   0.23105   0.29916   1.000
    O71     O    0.12321   0.12159   0.30786   1.000
    O72     O    0.19606   0.19679   0.37376   1.000
    O73     O    0.14966   0.15225   0.37776   1.000
    O74     O    0.85033   0.84777   0.62223   1.000
    O75     O    0.80395   0.80321   0.62622   1.000
    O76     O    0.87676   0.87844   0.69213   1.000
    O77     O    0.76840   0.76896   0.70082   1.000
    O78     O    0.86361   0.94176   0.75503   1.000
    O79     O    0.93543   0.88328   0.76033   1.000
    O80     O    0.84941   0.85272   0.78265   1.000
    O81     O    0.70066   0.76974   0.76738   1.000
    O82     O    0.76816   0.70155   0.76834   1.000
    O83     O    0.83007   0.01174   0.79245   1.000
    O84     O    0.00834   0.85245   0.79365   1.000
    O85     O    0.62657   0.80499   0.80135   1.000
    O86     O    0.80226   0.62743   0.80382   1.000
    O87     O    0.01083   0.79586   0.83169   1.000
    O88     O    0.78400   0.84943   0.85233   1.000
    O89     O    0.79352   0.00908   0.84948   1.000
    O90     O    0.62362   0.84929   0.84719   1.000
    O91     O    0.84595   0.62420   0.85066   1.000
    O92     O    0.94085   0.75807   0.86617   1.000
    O93     O    0.69428   0.87568   0.87820   1.000
    O94     O    0.87677   0.69461   0.87827   1.000
    O95     O    0.76165   0.93581   0.88174   1.000
    O96     O    0.88167   0.76152   0.93777   1.000
    O97     O    0.75693   0.86445   0.94149   1.000
    O98     O    0.85235   0.78408   0.85044   1.000
    O99     O    0.78743   0.78779   0.78735   1.000
    O100    O    0.14765   0.21593   0.14955   1.000
    O101    O    0.21256   0.21223   0.21264   1.000
    N102    N    0.17698   0.13478   0.68533   1.000
    O103    O    0.17577   0.15911   0.80762   1.000
    O104    O    0.17421   0.15420   0.56050   1.000
    N105    N    0.68521   0.17571   0.13500   1.000
    O106    O    0.56010   0.17341   0.15476   1.000
    O107    O    0.80820   0.17392   0.15911   1.000
    N108    N    0.31480   0.82436   0.86492   1.000
    O109    O    0.43990   0.82669   0.84513   1.000
    O110    O    0.19180   0.82615   0.84083   1.000
    N111    N    0.82294   0.86524   0.31463   1.000
    O112    O    0.82575   0.84581   0.43947   1.000
    O113    O    0.82419   0.84091   0.19236   1.000
    N114    N    0.13396   0.68435   0.17781   1.000
    O115    O    0.15854   0.80742   0.17661   1.000
    O116    O    0.15402   0.55934   0.17471   1.000
    N117    N    0.86602   0.31568   0.82207   1.000
    O118    O    0.84596   0.44069   0.82522   1.000
    O119    O    0.84144   0.19261   0.82331   1.000
loop_
    _geom_bond_atom_site_label_1
    _geom_bond_atom_site_label_2
    _geom_bond_distance
    _geom_bond_site_symmetry_2
    _ccdc_geom_bond_type
    Zr35   O46       0.98552      .   S
    Zr5    O46       0.98552      .   S
    Zr35   O47       0.63954  1_554   S
    Zr15   O47       0.63954      .   S
    Zr36   O48       0.98604      .   S
    Zr6    O48       0.98604      .   S
    Zr36   O49       0.63982  1_554   S
    Zr15   O49       0.63982      .   S
    Zr9    O50       0.64015      .   S
    Zr23   O50       0.64015  1_556   S
    Zr9    O51       0.63954      .   S
    Zr22   O51       0.63954  1_556   S
    Zr5    O52       0.98671      .   S
    Zr44   O52       0.98671      .   S
    Zr5    O53       0.98547      .   S
    Zr38   O53       0.98547      .   S
    Zr5    O54       0.97856      .   S
    Zr45   O54       0.97856      .   S
    Zr6    O55       0.98684      .   S
    Zr42   O55       0.98684      .   S
    Zr6    O56       0.98429      .   S
    Zr39   O56       0.98429      .   S
    Zr44   O57       0.64013  1_545   S
    Zr19   O57       0.64013      .   S
    Zr42   O58       0.64043      .   S
    Zr18   O58       0.64043      .   S
    Zr38   O59       0.64040      .   S
    Zr16   O59       0.64040      .   S
    Zr39   O60       0.64001  1_455   S
    Zr17   O60       0.64001      .   S
    Zr18   O61       0.63876      .   S
    Zr41   O61       0.63876      .   S
    Zr16   O62       0.63884      .   S
    Zr37   O62       0.63884      .   S
    Zr19   O63       0.63953      .   S
    Zr43   O63       0.63953  1_545   S
    Zr45   O64       0.97955      .   S
    Zr4    O64       0.97955      .   S
    Zr17   O65       0.64017      .   S
    Zr40   O65       0.64017  1_455   S
    Zr41   O66       0.97998      .   S
    Zr7    O66       0.97998      .   S
    Zr37   O67       0.98454      .   S
    Zr7    O67       0.98454      .   S
    Zr40   O68       0.98905      .   S
    Zr4    O68       0.98905      .   S
    Zr43   O69       0.98778      .   S
    Zr4    O69       0.98778      .   S
    Zr7    O70       0.98532      .   S
    Zr33   O70       0.98532      .   S
    Zr4    O71       0.98407      .   S
    Zr34   O71       0.98407      .   S
    Zr33   O72       0.63845      .   S
    Zr14   O72       0.63845      .   S
    Zr34   O73       0.64123      .   S
    Zr14   O73       0.64123      .   S
    Zr8    O74       0.64127      .   S
    Zr21   O74       0.64127      .   S
    Zr8    O75       0.63840      .   S
    Zr20   O75       0.63840      .   S
    Zr21   O76       0.98397      .   S
    Zr0    O76       0.98397      .   S
    Zr20   O77       0.98539      .   S
    Zr3    O77       0.98539      .   S
    Zr0    O78       0.98781      .   S
    Zr30   O78       0.98781      .   S
    Zr0    O79       0.98905      .   S
    Zr27   O79       0.98905      .   S
    Zr0    O80       0.97959      .   S
    Zr32   O80       0.97959      .   S
    Zr3    O81       0.98454      .   S
    Zr24   O81       0.98454      .   S
    Zr3    O82       0.97998      .   S
    Zr28   O82       0.97998      .   S
    Zr30   O83       0.63955  1_565   S
    Zr13   O83       0.63955      .   S
    Zr27   O84       0.64014  1_655   S
    Zr11   O84       0.64014      .   S
    Zr24   O85       0.63885      .   S
    Zr10   O85       0.63885      .   S
    Zr28   O86       0.63854      .   S
    Zr12   O86       0.63854      .   S
    Zr11   O87       0.64000      .   S
    Zr26   O87       0.64000  1_655   S
    Zr32   O88       0.97855      .   S
    Zr1    O88       0.97855      .   S
    Zr13   O89       0.64010      .   S
    Zr31   O89       0.64010  1_565   S
    Zr10   O90       0.63997      .   S
    Zr25   O90       0.63997      .   S
    Zr12   O91       0.64067      .   S
    Zr29   O91       0.64067      .   S
    Zr26   O92       0.98443      .   S
    Zr2    O92       0.98443      .   S
    Zr25   O93       0.98553      .   S
    Zr1    O93       0.98553      .   S
    Zr29   O94       0.98685      .   S
    Zr2    O94       0.98685      .   S
    Zr31   O95       0.98669      .   S
    Zr1    O95       0.98669      .   S
    Zr2    O96       0.98533      .   S
    Zr23   O96       0.98533      .   S
    Zr1    O97       0.98552      .   S
    Zr22   O97       0.98552      .   S
    Zr32   O98       0.98084      .   S
    Zr2    O98       0.98084      .   S
    Zr32   O99       0.98021      .   S
    Zr3    O99       0.98021      .   S
    Zr45   O100      0.98086      .   S
    Zr6    O100      0.98086      .   S
    Zr45   O101      0.98024      .   S
    Zr7    O101      0.98024      .   S
    N102   O103      2.18942      .   S
    Zr15   O103      2.92853      .   S
    N102   O104      2.16877      .   S
    Zr14   O104      2.90858      .   S
    N105   O106      2.17040      .   S
    Zr16   O106      2.91049      .   S
    N105   O107      2.19097      .   S
    Zr17   O107      2.93044      .   S
    N108   O109      2.17039      .   S
    Zr10   O109      2.91051      .   S
    N108   O110      2.19100      .   S
    Zr11   O110      2.93035      .   S
    N111   O112      2.16901      .   S
    Zr8    O112      2.90898      .   S
    N111   O113      2.18894      .   S
    Zr9    O113      2.92806      .   S
    N114   O115      2.19148      .   S
    Zr19   O115      2.93207      .   S
    N114   O116      2.17064      .   S
    Zr18   O116      2.91121      .   S
    N117   O118      2.17077      .   S
    Zr12   O118      2.91133      .   S
    N117   O119      2.19145      .   S
    Zr13   O119      2.93198      .   S
