# CIF file generated by openbabel 2.4.90, see http://openbabel.sf.net
data_I
_chemical_name_common ''
_cell_length_a 16.401
_cell_length_b 16.425
_cell_length_c 16.079
_cell_angle_alpha 90.014
_cell_angle_beta 89.992
_cell_angle_gamma 119.912
_space_group_name_H-M_alt 'P 1'
_space_group_name_Hall 'P 1'
loop_
    _symmetry_equiv_pos_as_xyz
    x,y,z
loop_
    _atom_site_label
    _atom_site_type_symbol
    _atom_site_fract_x
    _atom_site_fract_y
    _atom_site_fract_z
    _atom_site_occupancy
    Sc0     Sc   0.73584   0.26386   0.75000   1.000
    Sc1     Sc   0.52838   0.26398   0.75000   1.000
    Sc2     Sc   0.26455   0.52927   0.25002   1.000
    Sc3     Sc   0.26416   0.73616   0.24996   1.000
    Sc4     Sc   0.47162   0.73604   0.25002   1.000
    Sc5     Sc   0.73544   0.47076   0.75000   1.000
    C6      C    0.56815   0.43083   0.86840   1.000
    C7      C    0.86273   0.43075   0.86846   1.000
    C8      C    0.56866   0.13705   0.86843   1.000
    C9      C    0.43181   0.56918   0.36845   1.000
    C10     C    0.13724   0.56942   0.36841   1.000
    C11     C    0.43117   0.86297   0.36840   1.000
    C12     C    0.13727   0.56927   0.13156   1.000
    C13     C    0.43185   0.56919   0.13160   1.000
    C14     C    0.43134   0.86298   0.13159   1.000
    C15     C    0.86275   0.43061   0.63161   1.000
    C16     C    0.56818   0.43085   0.63150   1.000
    C17     C    0.56883   0.13706   0.63160   1.000
    O18     O    0.65183   0.48443   0.84038   1.000
    O19     O    0.83322   0.34720   0.84047   1.000
    O20     O    0.51477   0.16691   0.84042   1.000
    O21     O    0.34813   0.51556   0.34041   1.000
    O22     O    0.16674   0.65294   0.34044   1.000
    O23     O    0.48504   0.83305   0.34040   1.000
    O24     O    0.16739   0.51567   0.15960   1.000
    O25     O    0.48580   0.65273   0.15958   1.000
    O26     O    0.34762   0.83327   0.15958   1.000
    O27     O    0.83258   0.48421   0.65966   1.000
    O28     O    0.51425   0.34732   0.65956   1.000
    O29     O    0.65251   0.16672   0.65961   1.000
    O30     O    0.34817   0.51559   0.15965   1.000
    O31     O    0.16678   0.65282   0.15955   1.000
    O32     O    0.48523   0.83311   0.15960   1.000
    O33     O    0.65187   0.48446   0.65961   1.000
    O34     O    0.83325   0.34709   0.65958   1.000
    O35     O    0.51496   0.16698   0.65962   1.000
    O36     O    0.83260   0.48436   0.84041   1.000
    O37     O    0.51420   0.34729   0.84044   1.000
    O38     O    0.65238   0.16675   0.84044   1.000
    O39     O    0.16741   0.51582   0.34036   1.000
    O40     O    0.48574   0.65270   0.34046   1.000
    O41     O    0.34748   0.83331   0.34041   1.000
    O42     O    0.66653   0.33281   0.75002   1.000
    O43     O    0.33347   0.66722   0.25000   1.000
    Og44    Og   0.55649   0.44264   0.89080   1.000
    Og45    Og   0.88618   0.44257   0.89086   1.000
    Og46    Og   0.55693   0.11363   0.89082   1.000
    Og47    Og   0.44348   0.55737   0.39085   1.000
    Og48    Og   0.11379   0.55759   0.39082   1.000
    Og49    Og   0.44292   0.88639   0.39081   1.000
    Og50    Og   0.11381   0.55746   0.10916   1.000
    Og51    Og   0.44351   0.55738   0.10919   1.000
    Og52    Og   0.44306   0.88639   0.10918   1.000
    Og53    Og   0.88620   0.44244   0.60920   1.000
    Og54    Og   0.55652   0.44265   0.60912   1.000
    Og55    Og   0.55708   0.11364   0.60919   1.000
loop_
    _geom_bond_atom_site_label_1
    _geom_bond_atom_site_label_2
    _geom_bond_distance
    _geom_bond_site_symmetry_2
    _ccdc_geom_bond_type
    C12    O31       1.28730      .   S
    C12    O24       1.28719      .   S
    C14    O26       1.28745      .   S
    C14    O32       1.28736      .   S
    C13    O25       1.28720      .   S
    C13    O30       1.28724      .   S
    O31    Sc3       2.08740      .   S
    O26    Sc3       2.08630      .   S
    O25    Sc4       2.08753      .   S
    O24    Sc2       2.08529      .   S
    O32    Sc4       2.08605      .   S
    O30    Sc2       2.08543      .   S
    Sc3    O41       2.08648      .   S
    Sc3    O22       2.08805      .   S
    O43    Sc4       1.96399      .   S
    O43    Sc2       1.96402      .   S
    Sc4    O23       2.08523      .   S
    Sc4    O40       2.08798      .   S
    Sc2    O39       2.08460      .   S
    Sc2    O21       2.08569      .   S
    O39    C10       1.28740      .   S
    O23    C11       1.28743      .   S
    O21    C9        1.28730      .   S
    O41    C11       1.28724      .   S
    O22    C10       1.28707      .   S
    O40    C9        1.28722      .   S
    C16    O28       1.28760      .   S
    C16    O33       1.28770      .   S
    C17    O29       1.28735      .   S
    C17    O35       1.28755      .   S
    C15    O34       1.28706      .   S
    C15    O27       1.28741      .   S
    O28    Sc1       2.08803      .   S
    O34    Sc0       2.08740      .   S
    O29    Sc0       2.08579      .   S
    O33    Sc5       2.08570      .   S
    O35    Sc1       2.08519      .   S
    O27    Sc5       2.08459      .   S
    Sc1    O42       1.96399      .   S
    Sc1    O20       2.08607      .   S
    Sc1    O37       2.08752      .   S
    Sc0    O38       2.08698      .   S
    Sc0    O19       2.08805      .   S
    Sc5    O42       1.96402      .   S
    Sc5    O18       2.08552      .   S
    Sc5    O36       2.08517      .   S
    O18    C6        1.28708      .   S
    O36    C7        1.28726      .   S
    O20    C8        1.28734      .   S
    O38    C8        1.28745      .   S
    O37    C6        1.28710      .   S
    O19    C7        1.28730      .   S
    O42    Sc0       1.96418      .   S
    O43    Sc3       1.96419      .   S
    C6     Og44      0.49076      .   S
    C7     Og45      0.49086      .   S
    C8     Og46      0.49071      .   S
    C9     Og47      0.49092      .   S
    C10    Og48      0.49088      .   S
    C11    Og49      0.49086      .   S
    C12    Og50      0.49087      .   S
    C13    Og51      0.49089      .   S
    C14    Og52      0.49089      .   S
    C15    Og53      0.49089      .   S
    C16    Og54      0.49065      .   S
    C17    Og55      0.49081      .   S
