# CIF file generated by openbabel 2.4.90, see http://openbabel.sf.net
data_I
_chemical_name_common ''
_cell_length_a 16.401
_cell_length_b 16.425
_cell_length_c 16.079
_cell_angle_alpha 90.014
_cell_angle_beta 89.992
_cell_angle_gamma 119.912
_space_group_name_H-M_alt 'P 1'
_space_group_name_Hall 'P 1'
loop_
    _symmetry_equiv_pos_as_xyz
    x,y,z
loop_
    _atom_site_label
    _atom_site_type_symbol
    _atom_site_fract_x
    _atom_site_fract_y
    _atom_site_fract_z
    _atom_site_occupancy
    C0      C    0.56815   0.43083   0.86840   1.000
    C1      C    0.86273   0.43075   0.86846   1.000
    C2      C    0.56866   0.13705   0.86843   1.000
    C3      C    0.43181   0.56918   0.36845   1.000
    C4      C    0.13724   0.56942   0.36841   1.000
    C5      C    0.43117   0.86297   0.36840   1.000
    C6      C    0.13727   0.56927   0.13156   1.000
    C7      C    0.43185   0.56919   0.13160   1.000
    C8      C    0.43134   0.86298   0.13159   1.000
    C9      C    0.86275   0.43061   0.63161   1.000
    C10     C    0.56818   0.43085   0.63150   1.000
    C11     C    0.56883   0.13706   0.63160   1.000
