# CIF file generated by openbabel 2.4.90, see http://openbabel.sf.net
data_I
_chemical_name_common ''
_cell_length_a 20.652
_cell_length_b 13.157
_cell_length_c 17.994
_cell_angle_alpha 79.403
_cell_angle_beta 86.853
_cell_angle_gamma 78.876
_space_group_name_H-M_alt 'P 1'
_space_group_name_Hall 'P 1'
loop_
    _symmetry_equiv_pos_as_xyz
    x,y,z
loop_
    _atom_site_label
    _atom_site_type_symbol
    _atom_site_fract_x
    _atom_site_fract_y
    _atom_site_fract_z
    _atom_site_occupancy
    H0      H    0.28997   0.19793   0.69439   1.000
    H1      H    0.78996   0.19793   0.69439   1.000
    H2      H    0.22334   0.91414   0.80061   1.000
    H3      H    0.72333   0.91413   0.80061   1.000
    H4      H    0.08250   0.18597   0.70488   1.000
    H5      H    0.58249   0.18597   0.70489   1.000
    H6      H    0.10233   0.75722   0.73467   1.000
    H7      H    0.60232   0.75722   0.73467   1.000
    H8      H    0.09605   0.57897   0.67200   1.000
    H9      H    0.59604   0.57897   0.67201   1.000
    H10     H    0.40435   0.71707   0.73939   1.000
    H11     H    0.90434   0.71706   0.73939   1.000
    H12     H    0.41781   0.57631   0.64659   1.000
    H13     H    0.91781   0.57630   0.64658   1.000
    H14     H    0.49948   0.51718   0.62561   1.000
    H15     H    0.99947   0.51717   0.62561   1.000
    H16     H    0.03677   0.47362   0.80343   1.000
    H17     H    0.53676   0.47362   0.80344   1.000
    H18     H    0.03215   0.31390   0.89760   1.000
    H19     H    0.53214   0.31390   0.89760   1.000
    H20     H    0.38486   0.23712   0.76782   1.000
    H21     H    0.88485   0.23712   0.76780   1.000
    H22     H    0.38571   0.40254   0.67596   1.000
    H23     H    0.88570   0.40254   0.67590   1.000
    H24     H    0.46951   0.09727   0.85840   1.000
    H25     H    0.96950   0.09727   0.85840   1.000
    H26     H    0.40639   0.15774   0.91495   1.000
    H27     H    0.90638   0.15774   0.91494   1.000
    H28     H    0.09563   0.10564   0.89844   1.000
    H29     H    0.59562   0.10565   0.89845   1.000
    H30     H    0.14001   0.07492   0.04604   1.000
    H31     H    0.64000   0.07493   0.04605   1.000
    H32     H    0.43210   0.15267   0.04992   1.000
    H33     H    0.93209   0.15267   0.04992   1.000
    H34     H    0.21002   0.80206   0.30561   1.000
    H35     H    0.71001   0.80206   0.30561   1.000
    H36     H    0.27664   0.08587   0.19939   1.000
    H37     H    0.77664   0.08586   0.19939   1.000
    H38     H    0.41750   0.81404   0.29510   1.000
    H39     H    0.91749   0.81403   0.29512   1.000
    H40     H    0.39766   0.24278   0.26534   1.000
    H41     H    0.89765   0.24278   0.26533   1.000
    H42     H    0.40394   0.42103   0.32800   1.000
    H43     H    0.90393   0.42103   0.32799   1.000
    H44     H    0.09564   0.28293   0.26061   1.000
    H45     H    0.59563   0.28293   0.26062   1.000
    H46     H    0.08218   0.42369   0.35342   1.000
    H47     H    0.58217   0.42369   0.35342   1.000
    H48     H    0.00052   0.48282   0.37439   1.000
    H49     H    0.50051   0.48282   0.37440   1.000
    H50     H    0.46323   0.52638   0.19657   1.000
    H51     H    0.96321   0.52637   0.19657   1.000
    H52     H    0.46784   0.68610   0.10241   1.000
    H53     H    0.96783   0.68609   0.10240   1.000
    H54     H    0.11513   0.76288   0.23218   1.000
    H55     H    0.61512   0.76289   0.23219   1.000
    H56     H    0.11428   0.59745   0.32404   1.000
    H57     H    0.61427   0.59746   0.32405   1.000
    H58     H    0.03048   0.90273   0.14160   1.000
    H59     H    0.53047   0.90273   0.14161   1.000
    H60     H    0.09360   0.84226   0.08506   1.000
    H61     H    0.59359   0.84227   0.08506   1.000
    H62     H    0.40436   0.89435   0.10156   1.000
    H63     H    0.90435   0.89435   0.10156   1.000
    H64     H    0.35998   0.92508   0.95396   1.000
    H65     H    0.85997   0.92507   0.95396   1.000
    H66     H    0.06790   0.84733   0.95008   1.000
    H67     H    0.56788   0.84733   0.95009   1.000
    H68     H    0.42265   0.50652   0.48120   1.000
    H69     H    0.92264   0.50652   0.48119   1.000
    H70     H    0.01726   0.33447   0.54727   1.000
    H71     H    0.51725   0.33447   0.54727   1.000
    H72     H    0.32897   0.24859   0.56013   1.000
    H73     H    0.82896   0.24859   0.56013   1.000
    H74     H    0.00305   0.16006   0.63205   1.000
    H75     H    0.50304   0.16006   0.63205   1.000
    H76     H    0.42477   0.12671   0.64262   1.000
    H77     H    0.92476   0.12671   0.64262   1.000
    H78     H    0.01589   0.95069   0.63827   1.000
    H79     H    0.51588   0.95069   0.63827   1.000
    H80     H    0.45149   0.18371   0.44258   1.000
    H81     H    0.95148   0.18371   0.44258   1.000
    H82     H    0.32706   0.70414   0.51116   1.000
    H83     H    0.82705   0.70413   0.51116   1.000
    H84     H    0.25554   0.71878   0.73540   1.000
    H85     H    0.75554   0.71879   0.73500   1.000
    H86     H    0.22535   0.54087   0.69000   1.000
    H87     H    0.72534   0.54088   0.69000   1.000
    H88     H    0.37366   0.82979   0.60515   1.000
    H89     H    0.87366   0.82978   0.60514   1.000
    H90     H    0.31229   0.86290   0.67360   1.000
    H91     H    0.81229   0.86290   0.67360   1.000
    H92     H    0.18680   0.91091   0.60547   1.000
    H93     H    0.68680   0.91090   0.60547   1.000
    C94     C    0.53819   0.55083   0.26698   1.000
    C95     C    0.49779   0.57644   0.20405   1.000
    C96     C    0.99778   0.57644   0.20404   1.000
    C97     C    0.00006   0.66766   0.15093   1.000
    H98     H    0.37249   0.95474   0.49471   1.000
    H99     H    0.87248   0.95474   0.49470   1.000
    H100    H    0.07734   0.49348   0.51880   1.000
    H101    H    0.57733   0.49348   0.51881   1.000
    H102    H    0.48274   0.66553   0.45270   1.000
    H103    H    0.98273   0.66552   0.45273   1.000
    H104    H    0.17103   0.75141   0.43980   1.000
    H105    H    0.67102   0.75141   0.43988   1.000
    H106    H    0.49695   0.83994   0.36790   1.000
    H107    H    0.99694   0.83994   0.36795   1.000
    H108    H    0.07523   0.87328   0.35738   1.000
    H109    H    0.57522   0.87329   0.35739   1.000
    H110    H    0.48411   0.04931   0.36173   1.000
    H111    H    0.98410   0.04931   0.36173   1.000
    H112    H    0.04851   0.81629   0.55742   1.000
    H113    H    0.54850   0.81629   0.55742   1.000
    H114    H    0.17294   0.29586   0.48883   1.000
    H115    H    0.67292   0.29586   0.48884   1.000
    H116    H    0.24446   0.28122   0.26460   1.000
    H117    H    0.74444   0.28122   0.26461   1.000
    H118    H    0.27465   0.45913   0.31000   1.000
    H119    H    0.77463   0.45913   0.31000   1.000
    H120    H    0.12633   0.17022   0.39485   1.000
    H121    H    0.62632   0.17021   0.39486   1.000
    H122    H    0.18771   0.13710   0.32640   1.000
    H123    H    0.68769   0.13710   0.32640   1.000
    H124    H    0.31319   0.08910   0.39453   1.000
    H125    H    0.81318   0.08910   0.39453   1.000
    C126    C    0.49155   0.02759   0.42249   1.000
    C127    C    0.99154   0.02759   0.42249   1.000
    C128    C    0.02719   0.89661   0.53157   1.000
    C129    C    0.52718   0.89661   0.53150   1.000
    C130    C    0.19661   0.31711   0.43427   1.000
    H131    H    0.12750   0.04526   0.50529   1.000
    H132    H    0.62750   0.04526   0.50530   1.000
    C133    C    0.18481   0.20322   0.69483   1.000
    C134    C    0.68480   0.20322   0.69484   1.000
    C135    C    0.24998   0.15510   0.71153   1.000
    C136    C    0.74997   0.15510   0.71153   1.000
    C137    C    0.26424   0.05043   0.74969   1.000
    C138    C    0.76423   0.05043   0.74969   1.000
    C139    C    0.21265   0.99538   0.77120   1.000
    C140    C    0.71264   0.99538   0.77122   1.000
    C141    C    0.14713   0.04384   0.75544   1.000
    C142    C    0.64711   0.04384   0.75545   1.000
    C143    C    0.13337   0.14833   0.71727   1.000
    C144    C    0.63336   0.14833   0.71727   1.000
    C145    C    0.06055   0.72308   0.72474   1.000
    C146    C    0.56054   0.72308   0.72474   1.000
    C147    C    0.05818   0.63650   0.69326   1.000
    C148    C    0.55816   0.63650   0.69326   1.000
    C149    C    0.45714   0.70592   0.72873   1.000
    C150    C    0.95713   0.70592   0.72872   1.000
    C151    C    0.46640   0.54268   0.67130   1.000
    C152    C    0.96640   0.54268   0.67132   1.000
    C153    C    0.46179   0.44917   0.73303   1.000
    C154    C    0.96179   0.44917   0.73300   1.000
    C155    C    0.00221   0.42356   0.79596   1.000
    C156    C    0.50219   0.42356   0.79596   1.000
    C157    C    0.49993   0.33234   0.84907   1.000
    C158    C    0.99992   0.33234   0.84907   1.000
    C159    C    0.45821   0.26435   0.83916   1.000
    C160    C    0.95820   0.26435   0.83915   1.000
    C161    C    0.41709   0.29053   0.77628   1.000
    C162    C    0.91708   0.29053   0.77627   1.000
    C163    C    0.41835   0.38259   0.72420   1.000
    C164    C    0.91834   0.38259   0.72426   1.000
    C165    C    0.45636   0.16078   0.89151   1.000
    C166    C    0.95635   0.16078   0.89150   1.000
    C167    C    0.06919   0.11041   0.95173   1.000
    C168    C    0.56918   0.11041   0.95174   1.000
    C169    C    0.09027   0.09534   0.02461   1.000
    C170    C    0.59026   0.09535   0.02462   1.000
    C171    C    0.48270   0.13682   0.02917   1.000
    C172    C    0.98269   0.13682   0.02916   1.000
    C173    C    0.31519   0.79679   0.30517   1.000
    C174    C    0.81518   0.79678   0.30517   1.000
    C175    C    0.25002   0.84490   0.28848   1.000
    C176    C    0.75001   0.84489   0.28847   1.000
    C177    C    0.23576   0.94957   0.25031   1.000
    C178    C    0.73575   0.94957   0.25031   1.000
    C179    C    0.28734   0.00462   0.22878   1.000
    C180    C    0.78733   0.00461   0.22877   1.000
    C181    C    0.35286   0.95617   0.24456   1.000
    C182    C    0.85286   0.95616   0.24456   1.000
    C183    C    0.36662   0.85168   0.28274   1.000
    C184    C    0.86661   0.85167   0.28273   1.000
    C185    C    0.43944   0.27692   0.27520   1.000
    C186    C    0.93943   0.27692   0.27526   1.000
    C187    C    0.44182   0.36351   0.30674   1.000
    C188    C    0.94181   0.36350   0.30674   1.000
    C189    C    0.04285   0.29407   0.27127   1.000
    C190    C    0.54284   0.29408   0.27128   1.000
    C191    C    0.03359   0.45732   0.32868   1.000
    C192    C    0.53358   0.45732   0.32868   1.000
    C193    C    0.03820   0.55082   0.26697   1.000
    C194    C    0.50005   0.66766   0.15090   1.000
    C195    C    0.04178   0.73565   0.16085   1.000
    C196    C    0.54177   0.73565   0.16085   1.000
    C197    C    0.08290   0.70947   0.22372   1.000
    C198    C    0.58289   0.70948   0.22373   1.000
    C199    C    0.08164   0.61741   0.27574   1.000
    C200    C    0.58164   0.61741   0.27574   1.000
    C201    C    0.04363   0.83922   0.10850   1.000
    C202    C    0.54362   0.83922   0.10850   1.000
    C203    C    0.43080   0.88959   0.04827   1.000
    C204    C    0.93079   0.88959   0.04827   1.000
    C205    C    0.40972   0.90465   0.97539   1.000
    C206    C    0.90971   0.90465   0.97539   1.000
    C207    C    0.01729   0.86318   0.97084   1.000
    C208    C    0.51728   0.86318   0.97084   1.000
    C209    C    0.41795   0.42681   0.50669   1.000
    C210    C    0.91794   0.42681   0.50668   1.000
    C211    C    0.46493   0.34289   0.53756   1.000
    C212    C    0.96491   0.34288   0.53755   1.000
    C213    C    0.36685   0.29595   0.54591   1.000
    C214    C    0.86684   0.29595   0.54591   1.000
    C215    C    0.46057   0.15459   0.59990   1.000
    C216    C    0.96056   0.15458   0.59990   1.000
    C217    C    0.48097   0.07665   0.54670   1.000
    C218    C    0.98095   0.07664   0.54675   1.000
    C219    C    0.00845   0.97241   0.57751   1.000
    C220    C    0.50844   0.97241   0.57752   1.000
    C221    C    0.47281   0.10339   0.46843   1.000
    C222    C    0.97280   0.10339   0.46843   1.000
    C223    C    0.30338   0.68289   0.56573   1.000
    C224    C    0.80338   0.68289   0.56570   1.000
    C225    C    0.26548   0.68832   0.68308   1.000
    C226    C    0.76547   0.68832   0.68308   1.000
    C227    C    0.25092   0.60146   0.65994   1.000
    C228    C    0.75091   0.60147   0.65994   1.000
    C229    C    0.32029   0.84062   0.61742   1.000
    C230    C    0.82029   0.84062   0.61741   1.000
    C231    C    0.28376   0.92377   0.55700   1.000
    C232    C    0.78376   0.92377   0.55705   1.000
    C233    C    0.21475   0.94979   0.55928   1.000
    C234    C    0.71474   0.94978   0.55928   1.000
    C235    C    0.31871   0.97454   0.49726   1.000
    C236    C    0.81870   0.97454   0.49725   1.000
    C237    C    0.08205   0.57319   0.49332   1.000
    C238    C    0.58204   0.57319   0.49332   1.000
    C239    C    0.03507   0.65711   0.46245   1.000
    C240    C    0.53506   0.65712   0.46245   1.000
    C241    C    0.13314   0.70405   0.45400   1.000
    C242    C    0.63313   0.70405   0.45410   1.000
    C243    C    0.03942   0.84541   0.40010   1.000
    C244    C    0.53941   0.84542   0.40010   1.000
    C245    C    0.01903   0.92335   0.45325   1.000
    C246    C    0.51902   0.92336   0.45325   1.000
    C247    C    0.69660   0.31711   0.43428   1.000
    C248    C    0.23452   0.31169   0.31692   1.000
    C249    C    0.73450   0.31168   0.31692   1.000
    C250    C    0.24908   0.39854   0.34006   1.000
    C251    C    0.74906   0.39854   0.34006   1.000
    C252    C    0.17970   0.15938   0.38258   1.000
    C253    C    0.67969   0.15938   0.38259   1.000
    C254    C    0.21623   0.07623   0.44294   1.000
    C255    C    0.71622   0.07623   0.44295   1.000
    C256    C    0.28525   0.05022   0.44072   1.000
    C257    C    0.78524   0.05022   0.44072   1.000
    C258    C    0.18129   0.02546   0.50274   1.000
    C259    C    0.68128   0.02546   0.50275   1.000
    N260    N    0.99718   0.76601   0.74638   1.000
    N261    N    0.49717   0.76601   0.74639   1.000
    N262    N    0.49237   0.62687   0.69591   1.000
    N263    N    0.99237   0.62686   0.69590   1.000
    N264    N    0.50087   0.13685   0.95545   1.000
    N265    N    0.00000   0.13685   0.95544   1.000
    N266    N    0.03588   0.11176   0.07250   1.000
    N267    N    0.53587   0.11177   0.07250   1.000
    N268    N    0.50282   0.23399   0.25362   1.000
    N269    N    0.00000   0.23399   0.25360   1.000
    N270    N    0.00762   0.37313   0.30409   1.000
    N271    N    0.50761   0.37314   0.30410   1.000
    N272    N    0.99912   0.86315   0.04456   1.000
    N273    N    0.49911   0.86315   0.04456   1.000
    N274    N    0.46411   0.88824   0.92751   1.000
    N275    N    0.96410   0.88824   0.92750   1.000
    N276    N    0.35691   0.39662   0.51215   1.000
    N277    N    0.85690   0.39662   0.51215   1.000
    N278    N    0.43167   0.26056   0.56252   1.000
    N279    N    0.93166   0.26056   0.56252   1.000
    N280    N    0.27480   0.59917   0.58671   1.000
    N281    N    0.77479   0.59917   0.58671   1.000
    N282    N    0.29905   0.73895   0.62289   1.000
    N283    N    0.79905   0.73895   0.62289   1.000
    N284    N    0.14309   0.60338   0.48785   1.000
    N285    N    0.64308   0.60338   0.48786   1.000
    N286    N    0.06833   0.73944   0.43748   1.000
    N287    N    0.56832   0.73944   0.43740   1.000
    N288    N    0.22519   0.40084   0.41300   1.000
    N289    N    0.72518   0.40083   0.41330   1.000
    N290    N    0.20095   0.26105   0.37710   1.000
    N291    N    0.70093   0.26105   0.37711   1.000
loop_
    _geom_bond_atom_site_label_1
    _geom_bond_atom_site_label_2
    _geom_bond_distance
    _geom_bond_site_symmetry_2
    _ccdc_geom_bond_type
    C169   H30       1.08391      .   S
    C169   N266      1.38547      .   S
    C169   C167      1.37201  1_554   S
    C170   H31       1.08391      .   S
    C170   N267      1.38536      .   S
    C170   C168      1.37201  1_554   S
    C172   H33       1.08493      .   S
    C172   N266      1.33535  1_655   S
    C172   N265      1.35469  1_654   S
    C171   H32       1.08485      .   S
    C171   N267      1.33491      .   S
    C171   N264      1.35855  1_554   S
    N273   C203      1.38716      .   S
    N273   C202      1.46262      .   S
    N273   C208      1.35855  1_554   S
    N272   C204      1.38758      .   S
    N272   C201      1.46262  1_655   S
    N272   C207      1.35855  1_654   S
    C203   H62       1.08309      .   S
    C203   C205      1.37201  1_554   S
    C204   H63       1.08309      .   S
    C204   C206      1.37200  1_554   S
    H60    C201      1.09836      .   S
    H61    C202      1.09836      .   S
    H53    C97       1.08997  1_655   S
    H52    C194      1.08913      .   S
    C202   H59       1.09760      .   S
    C202   C196      1.51318      .   S
    C201   H58       1.09747      .   S
    C201   C195      1.51319      .   S
    C194   C196      1.39564      .   S
    C194   C95       1.39710      .   S
    C97    C195      1.39548      .   S
    C97    C96       1.39679  1_455   S
    C195   C197      1.40319      .   S
    C196   C198      1.40332      .   S
    H50    C95       1.08904      .   S
    H51    C96       1.08901      .   S
    H37    C180      1.08851      .   S
    H36    C179      1.08852      .   S
    C96    C193      1.39556  1_655   S
    C95    C94       1.39530      .   S
    C197   H54       1.09133      .   S
    C197   C199      1.39158      .   S
    C198   H55       1.09135      .   S
    C198   C200      1.39148      .   S
    C180   C182      1.40031  1_545   S
    C180   C178      1.39963  1_545   S
    C179   C181      1.40030  1_545   S
    C179   C177      1.39964  1_545   S
    C181   C183      1.40218      .   S
    C182   C184      1.40219      .   S
    C177   C175      1.40457      .   S
    C178   C176      1.40457      .   S
    N269   C189      1.37929      .   S
    N269   C186      1.33805  1_455   S
    N268   C190      1.33508      .   S
    N268   C185      1.38652      .   S
    H44    C189      1.08289      .   S
    H45    C190      1.08289      .   S
    H116   C248      1.08392      .   S
    H117   C249      1.08376      .   S
    H41    C186      1.08358      .   S
    H40    C185      1.08322      .   S
    C193   C199      1.40256      .   S
    C193   C191      1.51217      .   S
    C94    C200      1.40250      .   S
    C94    C192      1.51208      .   S
    C189   N270      1.35899      .   S
    C190   N271      1.35899      .   S
    C185   C187      1.37287      .   S
    C186   C188      1.37226      .   S
    C199   H56       1.09119      .   S
    C200   H57       1.09133      .   S
    C184   H39       1.08773      .   S
    C184   C174      1.39801      .   S
    C183   H38       1.08767      .   S
    C183   C173      1.39802      .   S
    C176   C174      1.39572      .   S
    C176   H35       1.08751      .   S
    C175   C173      1.39570      .   S
    C175   H34       1.08752      .   S
    N270   C188      1.38656  1_455   S
    N270   C191      1.46491      .   S
    N271   C187      1.38616      .   S
    N271   C192      1.46482      .   S
    C187   H42       1.08456      .   S
    C188   H43       1.08449      .   S
    H118   C250      1.08602      .   S
    H119   C251      1.08603      .   S
    C249   C251      1.37516      .   S
    C249   N291      1.38850      .   S
    C248   C250      1.37517      .   S
    C248   N290      1.38839      .   S
    H123   C253      1.09885      .   S
    H122   C252      1.09868      .   S
    C192   H47       1.09825      .   S
    C192   H49       1.09881      .   S
    C191   H46       1.09825      .   S
    C191   H48       1.09867      .   S
    C251   N289      1.38512      .   S
    C250   N288      1.38007      .   S
    H108   C243      1.10027      .   S
    H109   C244      1.10016      .   S
    H110   C126      1.08959      .   S
    H111   C127      1.08959      .   S
    H106   C244      1.09794      .   S
    H107   C243      1.09776  1_655   S
    N290   C252      1.47134      .   S
    N290   C130      1.36152      .   S
    N291   C253      1.47134      .   S
    N291   C247      1.36153      .   S
    C252   H120      1.09913      .   S
    C252   C254      1.50997      .   S
    C253   H121      1.09911      .   S
    C253   C255      1.51001      .   S
    H124   C256      1.09103      .   S
    H125   C257      1.09102      .   S
    C243   N286      1.45976      .   S
    C243   C245      1.51442      .   S
    C244   N287      1.45932      .   S
    C244   C246      1.51442      .   S
    N288   C130      1.33392      .   S
    N289   C247      1.33334      .   S
    C127   C245      1.40153  1_645   S
    C127   C222      1.39535      .   S
    C126   C246      1.40143  1_545   S
    C126   C221      1.39535      .   S
    C130   H114      1.08637      .   S
    C247   H115      1.08637      .   S
    N287   C242      1.36055      .   S
    N287   C240      1.38621      .   S
    N286   C241      1.35987      .   S
    N286   C239      1.38599      .   S
    H104   C241      1.08313      .   S
    H105   C242      1.08316      .   S
    C257   C255      1.40033      .   S
    C257   C236      1.39384  1_545   S
    C256   C254      1.40033      .   S
    C256   C235      1.39393  1_545   S
    H80    C221      1.09049      .   S
    H81    C222      1.09048      .   S
    C254   C258      1.40046      .   S
    C255   C259      1.40043      .   S
    H102   C240      1.08539      .   S
    H103   C239      1.08571  1_655   S
    C245   C128      1.39968      .   S
    C246   C129      1.39846      .   S
    C241   N284      1.33398      .   S
    C242   N285      1.33352      .   S
    C239   C237      1.37452      .   S
    C240   C238      1.37452      .   S
    C221   C217      1.39881      .   S
    C222   C218      1.39968      .   S
    H69    C210      1.08501      .   S
    H68    C209      1.08501      .   S
    N284   C237      1.38628      .   S
    N285   C238      1.38627      .   S
    C237   H100      1.08497      .   S
    C238   H101      1.08502      .   S
    H99    C236      1.09121      .   S
    H98    C235      1.09121      .   S
    C236   C232      1.40044      .   S
    C235   C231      1.39976      .   S
    C258   H131      1.09121      .   S
    C258   C233      1.39393  1_545   S
    C259   H132      1.09123      .   S
    C259   C234      1.39384  1_545   S
    C210   N277      1.38629      .   S
    C210   C212      1.37453      .   S
    C209   N276      1.38628      .   S
    C209   C211      1.37452      .   S
    H82    C223      1.08652      .   S
    H83    C224      1.08606      .   S
    N276   C213      1.33352      .   S
    N277   C214      1.33352      .   S
    C129   H113      1.09082      .   S
    C129   C220      1.39638      .   S
    C128   H112      1.09049      .   S
    C128   C219      1.39535      .   S
    C212   H70       1.08573  1_655   S
    C212   N279      1.38598      .   S
    C211   H71       1.08526      .   S
    C211   N278      1.38595      .   S
    C214   H73       1.08315      .   S
    C214   N279      1.36023      .   S
    C213   H72       1.08316      .   S
    C213   N278      1.36021      .   S
    C217   C220      1.40167  1_545   S
    C217   C215      1.51508      .   S
    C218   C219      1.40152  1_645   S
    C218   C216      1.51442      .   S
    C231   C233      1.40035      .   S
    C231   C229      1.51064      .   S
    C232   C234      1.40033      .   S
    C232   C230      1.51001      .   S
    C234   H93       1.09102      .   S
    C233   H92       1.09104      .   S
    N278   C215      1.45977      .   S
    N279   C216      1.45976      .   S
    C224   N281      1.33341      .   S
    C224   N283      1.36186      .   S
    C223   N280      1.33334      .   S
    C223   N282      1.36139      .   S
    C219   H78       1.08959      .   S
    C220   H79       1.08942      .   S
    N281   C228      1.38495      .   S
    N280   C227      1.38495      .   S
    C215   H75       1.09742      .   S
    C215   H76       1.10027      .   S
    C216   H74       1.09776  1_655   S
    C216   H77       1.10029      .   S
    H89    C230      1.09913      .   S
    H88    C229      1.09915      .   S
    C230   N283      1.47134      .   S
    C230   H91       1.09885      .   S
    C229   N282      1.47135      .   S
    C229   H90       1.09868      .   S
    N283   C226      1.38849      .   S
    N282   C225      1.38850      .   S
    H14    C151      1.09840      .   S
    H15    C152      1.09869      .   S
    H13    C152      1.09823      .   S
    H12    C151      1.09805      .   S
    C227   C225      1.37517      .   S
    C227   H86       1.08602      .   S
    C228   C226      1.37518      .   S
    C228   H87       1.08602      .   S
    C151   N262      1.46508      .   S
    C151   C153      1.51239      .   S
    C152   N263      1.46481      .   S
    C152   C154      1.51186      .   S
    H8     C147      1.08456      .   S
    H9     C148      1.08450      .   S
    H23    C164      1.09203      .   S
    H22    C163      1.09033      .   S
    C226   H85       1.07727      .   S
    C225   H84       1.08392      .   S
    C148   N262      1.38615      .   S
    C148   C146      1.37226      .   S
    C147   N263      1.38658  1_455   S
    C147   C145      1.37225      .   S
    H0     C135      1.08752      .   S
    H1     C136      1.08752      .   S
    C133   C135      1.39574      .   S
    C133   C143      1.39802      .   S
    C134   C136      1.39572      .   S
    C134   C144      1.39801      .   S
    N263   C150      1.35899      .   S
    N262   C149      1.35898      .   S
    H4     C143      1.08774      .   S
    H5     C144      1.08772      .   S
    C136   C138      1.40455      .   S
    C135   C137      1.40455      .   S
    C143   C141      1.40216      .   S
    C144   C142      1.40221      .   S
    C163   C153      1.40283      .   S
    C163   C161      1.39212      .   S
    C164   C154      1.40241      .   S
    C164   C162      1.39148      .   S
    C145   H6        1.08360      .   S
    C145   N260      1.38684  1_455   S
    C146   H7        1.08358      .   S
    C146   N261      1.38691      .   S
    C150   H11       1.08290      .   S
    C150   N260      1.33542      .   S
    C149   H10       1.08289      .   S
    C149   N261      1.33509      .   S
    C154   C155      1.39598  1_655   S
    C153   C156      1.39529      .   S
    C138   C140      1.39963  1_545   S
    C137   C139      1.39957  1_545   S
    C141   C139      1.40023  1_545   S
    C142   C140      1.40027  1_545   S
    H21    C162      1.09138      .   S
    H20    C161      1.09133      .   S
    C139   H2        1.08868      .   S
    C140   H3        1.08855      .   S
    C162   C160      1.40330      .   S
    C161   C159      1.40331      .   S
    C155   H16       1.08899      .   S
    C155   C158      1.39679  1_455   S
    C156   H17       1.08904      .   S
    C156   C157      1.39673      .   S
    C160   C158      1.39548      .   S
    C160   C166      1.51317      .   S
    C159   C157      1.39541      .   S
    C159   C165      1.51317      .   S
    C158   H18       1.08995  1_655   S
    C157   H19       1.08969      .   S
    H25    C166      1.09749      .   S
    H24    C165      1.09761      .   S
    C166   H27       1.09835      .   S
    C166   N265      1.45147  1_655   S
    C165   H26       1.09836      .   S
    C165   N264      1.46264      .   S
    H28    C167      1.08309      .   S
    H29    C168      1.08308      .   S
    N275   C207      1.33535  1_655   S
    N275   C206      1.38546      .   S
    N274   C208      1.33489      .   S
    N274   C205      1.38537      .   S
    H66    C207      1.08493      .   S
    H67    C208      1.08487      .   S
    C167   N265      1.40478      .   S
    C168   N264      1.38716      .   S
    H64    C205      1.08391      .   S
    H65    C206      1.08392      .   S
