# CIF file generated by openbabel 2.4.90, see http://openbabel.sf.net
data_I
_chemical_name_common ''
_cell_length_a 20.652
_cell_length_b 13.157
_cell_length_c 17.994
_cell_angle_alpha 79.403
_cell_angle_beta 86.853
_cell_angle_gamma 78.876
_space_group_name_H-M_alt 'P 1'
_space_group_name_Hall 'P 1'
loop_
    _symmetry_equiv_pos_as_xyz
    x,y,z
loop_
    _atom_site_label
    _atom_site_type_symbol
    _atom_site_fract_x
    _atom_site_fract_y
    _atom_site_fract_z
    _atom_site_occupancy
    Lv0     Lv   0.49461   0.37680   0.81981   1.000
    Lv1     Lv   0.74999   0.00000   0.49999   1.000
    Lv2     Lv   0.25000   0.00000   0.49999   1.000
    Lv3     Lv   0.99459   0.37680   0.81980   1.000
    Lv4     Lv   0.80132   0.90063   0.26668   1.000
    Lv5     Lv   0.69865   0.09937   0.73332   1.000
    Lv6     Lv   0.49999   0.00000   0.49999   1.000
    Lv7     Lv   0.99999   1.00000   0.49999   1.000
    Lv8     Lv   0.19866   0.09937   0.73332   1.000
    Lv9     Lv   0.30133   0.90063   0.26668   1.000
    Lv10    Lv   0.50537   0.62320   0.18019   1.000
    Lv11    Lv   0.00528   0.62319   0.18019   1.000
