# CIF file generated by openbabel 2.4.90, see http://openbabel.sf.net
data_I
_chemical_name_common ''
_cell_length_a 20.652
_cell_length_b 13.157
_cell_length_c 17.994
_cell_angle_alpha 79.403
_cell_angle_beta 86.853
_cell_angle_gamma 78.876
_space_group_name_H-M_alt 'P 1'
_space_group_name_Hall 'P 1'
loop_
    _symmetry_equiv_pos_as_xyz
    x,y,z
loop_
    _atom_site_label
    _atom_site_type_symbol
    _atom_site_fract_x
    _atom_site_fract_y
    _atom_site_fract_z
    _atom_site_occupancy
    S0      S    0.16543   0.33552   0.64287   1.000
    S1      S    0.66542   0.33552   0.64280   1.000
    S2      S    0.33457   0.66448   0.35712   1.000
    S3      S    0.83456   0.66447   0.35712   1.000
    O4      O    0.22771   0.35159   0.59980   1.000
    O5      O    0.72770   0.35159   0.59985   1.000
    O6      O    0.14701   0.40588   0.69830   1.000
    O7      O    0.64701   0.40588   0.69835   1.000
    O8      O    0.11145   0.33366   0.59240   1.000
    O9      O    0.61143   0.33367   0.59248   1.000
    O10     O    0.27228   0.64840   0.40015   1.000
    O11     O    0.77227   0.64840   0.40015   1.000
    O12     O    0.35298   0.59414   0.30163   1.000
    O13     O    0.85297   0.59412   0.30164   1.000
    O14     O    0.38855   0.66632   0.40753   1.000
    O15     O    0.88854   0.66632   0.40750   1.000
loop_
    _geom_bond_atom_site_label_1
    _geom_bond_atom_site_label_2
    _geom_bond_distance
    _geom_bond_site_symmetry_2
    _ccdc_geom_bond_type
    O12    S2        1.46982      .   S
    O13    S3        1.46978      .   S
    S2     O10       1.49475      .   S
    S2     O14       1.48188      .   S
    S3     O11       1.49473      .   S
    S3     O15       1.48152      .   S
    O8     S0        1.48259      .   S
    O9     S1        1.48086      .   S
    O4     S0        1.49506      .   S
    O5     S1        1.49409      .   S
    S1     O7        1.47085      .   S
    S0     O6        1.46921      .   S
