# CIF file generated by openbabel 2.4.90, see http://openbabel.sf.net
data_I
_chemical_name_common ''
_cell_length_a 20.652
_cell_length_b 13.157
_cell_length_c 17.994
_cell_angle_alpha 79.403
_cell_angle_beta 86.853
_cell_angle_gamma 78.876
_space_group_name_H-M_alt 'P 1'
_space_group_name_Hall 'P 1'
loop_
    _symmetry_equiv_pos_as_xyz
    x,y,z
loop_
    _atom_site_label
    _atom_site_type_symbol
    _atom_site_fract_x
    _atom_site_fract_y
    _atom_site_fract_z
    _atom_site_occupancy
    Cd0     Cd   0.96680   0.91203   0.79877   1.000
    Cd1     Cd   0.03318   0.08797   0.20123   1.000
    Cd2     Cd   0.53317   0.08798   0.20120   1.000
    Cd3     Cd   0.25000   0.50000   0.50000   1.000
    Cd4     Cd   0.74999   0.50000   0.50000   1.000
    Cd5     Cd   0.46681   0.91203   0.79877   1.000
    C6      C    0.33431   0.99675   0.76663   1.000
    C7      C    0.83430   0.99675   0.76663   1.000
    C8      C    0.09240   0.98241   0.77798   1.000
    C9      C    0.59239   0.98241   0.77798   1.000
    C10     C    0.16568   0.00324   0.23337   1.000
    C11     C    0.66567   0.00324   0.23330   1.000
    C12     C    0.40759   0.01761   0.22203   1.000
    C13     C    0.90758   0.01759   0.22202   1.000
    O14     O    0.37936   0.05312   0.75629   1.000
    O15     O    0.87934   0.05312   0.75629   1.000
    O16     O    0.34688   0.89787   0.79040   1.000
    O17     O    0.84686   0.89787   0.79040   1.000
    O18     O    0.10518   0.89050   0.81547   1.000
    O19     O    0.60517   0.89050   0.81547   1.000
    O20     O    0.03391   0.02998   0.75620   1.000
    O21     O    0.53390   0.02998   0.75622   1.000
    O22     O    0.12064   0.94686   0.24371   1.000
    O23     O    0.62063   0.94687   0.24371   1.000
    O24     O    0.15311   0.10212   0.20960   1.000
    O25     O    0.65310   0.10211   0.20960   1.000
    O26     O    0.39481   0.10952   0.18453   1.000
    O27     O    0.89480   0.10951   0.18453   1.000
    O28     O    0.46608   0.97004   0.24379   1.000
    O29     O    0.96607   0.97003   0.24370   1.000
loop_
    _geom_bond_atom_site_label_1
    _geom_bond_atom_site_label_2
    _geom_bond_distance
    _geom_bond_site_symmetry_2
    _ccdc_geom_bond_type
    O27    C13       1.25841      .   S
    O26    C12       1.25841      .   S
    Cd2    O25       2.53407      .   S
    Cd2    O23       2.37268  1_545   S
    Cd2    O28       2.27833  1_545   S
    Cd1    O24       2.53403      .   S
    Cd1    O29       2.27826  1_445   S
    Cd1    O22       2.37256  1_545   S
    O25    C11       1.27259      .   S
    O24    C10       1.27276      .   S
    C13    O29       1.29350  1_545   S
    C12    O28       1.29393  1_545   S
    C11    O23       1.28314  1_545   S
    C10    O22       1.28315  1_545   S
    O20    C8        1.29400  1_545   S
    O20    Cd0       2.27861  1_445   S
    O21    C9        1.29392  1_545   S
    O21    Cd5       2.27824  1_545   S
    O14    C6        1.28316  1_545   S
    O14    Cd5       2.37247  1_545   S
    O15    C7        1.28313  1_545   S
    O15    Cd0       2.37248  1_545   S
    C6     O16       1.27279      .   S
    C7     O17       1.27279      .   S
    C8     O18       1.25840      .   S
    C9     O19       1.25837      .   S
    O17    Cd0       2.53416      .   S
    O16    Cd5       2.53416      .   S
