# CIF file generated by openbabel 2.4.90, see http://openbabel.sf.net
data_I
_chemical_name_common ''
_cell_length_a 20.652
_cell_length_b 13.157
_cell_length_c 17.994
_cell_angle_alpha 79.403
_cell_angle_beta 86.853
_cell_angle_gamma 78.876
_space_group_name_H-M_alt 'P 1'
_space_group_name_Hall 'P 1'
loop_
    _symmetry_equiv_pos_as_xyz
    x,y,z
loop_
    _atom_site_label
    _atom_site_type_symbol
    _atom_site_fract_x
    _atom_site_fract_y
    _atom_site_fract_z
    _atom_site_occupancy
    C0      C    0.33431   0.99675   0.76663   1.000
    C1      C    0.83430   0.99675   0.76663   1.000
    C2      C    0.09240   0.98241   0.77798   1.000
    C3      C    0.59239   0.98241   0.77798   1.000
    C4      C    0.16568   0.00324   0.23337   1.000
    C5      C    0.66567   0.00324   0.23330   1.000
    C6      C    0.40759   0.01761   0.22203   1.000
    C7      C    0.90758   0.01759   0.22202   1.000
