# CIF file generated by openbabel 2.4.90, see http://openbabel.sf.net
data_I
_chemical_name_common ''
_cell_length_a 20.652
_cell_length_b 13.157
_cell_length_c 17.994
_cell_angle_alpha 79.403
_cell_angle_beta 86.853
_cell_angle_gamma 78.876
_space_group_name_H-M_alt 'P 1'
_space_group_name_Hall 'P 1'
loop_
    _symmetry_equiv_pos_as_xyz
    x,y,z
loop_
    _atom_site_label
    _atom_site_type_symbol
    _atom_site_fract_x
    _atom_site_fract_y
    _atom_site_fract_z
    _atom_site_occupancy
    Zr0     Zr   0.46681   0.91203   0.79877   1.000
    Zr1     Zr   0.96680   0.91203   0.79877   1.000
    Zr2     Zr   0.03318   0.08797   0.20123   1.000
    Zr3     Zr   0.53317   0.08798   0.20120   1.000
    Zr4     Zr   0.25000   0.50000   0.50000   1.000
    Zr5     Zr   0.74999   0.50000   0.50000   1.000
    Zr6     Zr   0.33431   0.99675   0.76663   1.000
    Zr7     Zr   0.83430   0.99675   0.76663   1.000
    Zr8     Zr   0.09240   0.98241   0.77798   1.000
    Zr9     Zr   0.59239   0.98241   0.77798   1.000
    Zr10    Zr   0.16568   0.00324   0.23337   1.000
    Zr11    Zr   0.66567   0.00324   0.23330   1.000
    Zr12    Zr   0.40759   0.01761   0.22203   1.000
    Zr13    Zr   0.90758   0.01759   0.22202   1.000
    Zr14    Zr   0.37936   0.05312   0.75629   1.000
    Zr15    Zr   0.87934   0.05312   0.75629   1.000
    Zr16    Zr   0.34688   0.89787   0.79040   1.000
    Zr17    Zr   0.84686   0.89787   0.79040   1.000
    Zr18    Zr   0.10518   0.89050   0.81547   1.000
    Zr19    Zr   0.60517   0.89050   0.81547   1.000
    Zr20    Zr   0.03391   0.02998   0.75620   1.000
    Zr21    Zr   0.53390   0.02998   0.75622   1.000
    Zr22    Zr   0.12064   0.94686   0.24371   1.000
    Zr23    Zr   0.62063   0.94687   0.24371   1.000
    Zr24    Zr   0.15311   0.10212   0.20960   1.000
    Zr25    Zr   0.65310   0.10211   0.20960   1.000
    Zr26    Zr   0.39481   0.10952   0.18453   1.000
    Zr27    Zr   0.89480   0.10951   0.18453   1.000
    Zr28    Zr   0.46608   0.97004   0.24379   1.000
    Zr29    Zr   0.96607   0.97003   0.24370   1.000
    O30     O    0.90119   0.06355   0.20328   1.000
    O31     O    0.40120   0.06356   0.20328   1.000
    O32     O    0.59314   0.09504   0.20540   1.000
    O33     O    0.57690   0.01742   0.22246   1.000
    O34     O    0.49962   0.02901   0.22250   1.000
    O35     O    0.09315   0.09504   0.20542   1.000
    O36     O    0.99962   0.02900   0.22247   1.000
    O37     O    0.07691   0.01742   0.22247   1.000
    O38     O    0.65939   0.05267   0.22145   1.000
    O39     O    0.15940   0.05268   0.22149   1.000
    O40     O    0.93682   0.99381   0.23286   1.000
    O41     O    0.43683   0.99382   0.23291   1.000
    O42     O    0.64315   0.97505   0.23851   1.000
    O43     O    0.14316   0.97505   0.23854   1.000
    O44     O    0.06316   0.00620   0.76709   1.000
    O45     O    0.00036   0.97100   0.77748   1.000
    O46     O    0.56315   0.00620   0.76710   1.000
    O47     O    0.50036   0.97100   0.77750   1.000
    O48     O    0.35683   0.02494   0.76146   1.000
    O49     O    0.42308   0.98258   0.77753   1.000
    O50     O    0.85682   0.02494   0.76146   1.000
    O51     O    0.92307   0.98257   0.77753   1.000
    O52     O    0.34059   0.94731   0.77852   1.000
    O53     O    0.84058   0.94731   0.77852   1.000
    O54     O    0.09879   0.93645   0.79673   1.000
    O55     O    0.59878   0.93645   0.79673   1.000
    O56     O    0.90683   0.90495   0.79459   1.000
    O57     O    0.40684   0.90495   0.79459   1.000
    N58     N    0.49461   0.37680   0.81981   1.000
    O59     O    0.51457   0.23834   0.97833   1.000
    O60     O    0.48830   0.60791   0.79619   1.000
    N61     N    0.74999   0.00000   0.49999   1.000
    O62     O    0.75619   0.77479   0.52167   1.000
    O63     O    0.74379   0.22521   0.47832   1.000
    N64     N    0.25000   0.00000   0.49999   1.000
    O65     O    0.24380   0.22521   0.47824   1.000
    O66     O    0.25620   0.77479   0.52167   1.000
    N67     N    0.99459   0.37680   0.81980   1.000
    O68     O    0.01456   0.23833   0.97833   1.000
    O69     O    0.98829   0.60791   0.79619   1.000
    N70     N    0.80132   0.90063   0.26668   1.000
    O71     O    0.75101   0.93851   0.25424   1.000
    O72     O    0.84077   0.94375   0.24999   1.000
    O73     O    0.79911   0.60876   0.40834   1.000
    N74     N    0.69865   0.09937   0.73332   1.000
    O75     O    0.74896   0.06148   0.74574   1.000
    O76     O    0.65920   0.05625   0.75002   1.000
    O77     O    0.70087   0.39123   0.59165   1.000
    N78     N    0.49999   0.00000   0.49999   1.000
    O79     O    0.59826   0.77585   0.49696   1.000
    O80     O    0.40172   0.22415   0.50303   1.000
    N81     N    0.99999   1.00000   0.49999   1.000
    O82     O    0.09827   0.77584   0.49696   1.000
    O83     O    0.90172   0.22415   0.50303   1.000
    N84     N    0.19866   0.09937   0.73332   1.000
    O85     O    0.15921   0.05625   0.75001   1.000
    O86     O    0.24897   0.06148   0.74574   1.000
    O87     O    0.20088   0.39123   0.59162   1.000
    N88     N    0.30133   0.90063   0.26668   1.000
    O89     O    0.34078   0.94376   0.24999   1.000
    O90     O    0.25102   0.93852   0.25426   1.000
    O91     O    0.29912   0.60877   0.40834   1.000
    N92     N    0.50537   0.62320   0.18019   1.000
    O93     O    0.48541   0.76166   0.02167   1.000
    O94     O    0.51168   0.39209   0.20380   1.000
    N95     N    0.00528   0.62319   0.18019   1.000
    O96     O    0.01094   0.39209   0.20380   1.000
    O97     O    0.98537   0.76166   0.02166   1.000
loop_
    _geom_bond_atom_site_label_1
    _geom_bond_atom_site_label_2
    _geom_bond_distance
    _geom_bond_site_symmetry_2
    _ccdc_geom_bond_type
    Zr27   O30       0.62920      .   S
    Zr13   O30       0.62920      .   S
    Zr26   O31       0.62921      .   S
    Zr12   O31       0.62921      .   S
    Zr3    O32       1.26703      .   S
    Zr25   O32       1.26703      .   S
    Zr3    O33       1.18634      .   S
    Zr23   O33       1.18634  1_565   S
    Zr3    O34       1.13917      .   S
    Zr28   O34       1.13917  1_565   S
    Zr2    O35       1.26701      .   S
    Zr24   O35       1.26701      .   S
    Zr2    O36       1.13913  1_455   S
    Zr29   O36       1.13913  1_565   S
    Zr2    O37       1.18628      .   S
    Zr22   O37       1.18628  1_565   S
    Zr25   O38       0.63629      .   S
    Zr11   O38       0.63629      .   S
    Zr24   O39       0.63638      .   S
    Zr10   O39       0.63638      .   S
    Zr13   O40       0.64675  1_545   S
    Zr29   O40       0.64675      .   S
    Zr12   O41       0.64697  1_545   S
    Zr28   O41       0.64697      .   S
    Zr11   O42       0.64157  1_545   S
    Zr23   O42       0.64157      .   S
    Zr10   O43       0.64157  1_545   S
    Zr22   O43       0.64157      .   S
    Zr20   O44       0.64700      .   S
    Zr8    O44       0.64700  1_565   S
    Zr20   O45       1.13931  1_545   S
    Zr1    O45       1.13931  1_655   S
    Zr21   O46       0.64696      .   S
    Zr9    O46       0.64696  1_565   S
    Zr21   O47       1.13912  1_545   S
    Zr0    O47       1.13912      .   S
    Zr14   O48       0.64158      .   S
    Zr6    O48       0.64158  1_565   S
    Zr14   O49       1.18623  1_545   S
    Zr0    O49       1.18623      .   S
    Zr15   O50       0.64156      .   S
    Zr7    O50       0.64156  1_565   S
    Zr15   O51       1.18624  1_545   S
    Zr1    O51       1.18624      .   S
    Zr6    O52       0.63639      .   S
    Zr16   O52       0.63639      .   S
    Zr7    O53       0.63639      .   S
    Zr17   O53       0.63639      .   S
    Zr8    O54       0.62920      .   S
    Zr18   O54       0.62920      .   S
    Zr9    O55       0.62919      .   S
    Zr19   O55       0.62919      .   S
    Zr17   O56       1.26708      .   S
    Zr1    O56       1.26708      .   S
    Zr16   O57       1.26708      .   S
    Zr0    O57       1.26708      .   S
    N58    O59       3.09082      .   S
    Zr3    O59       4.13546  1_554   S
    N58    O60       2.97004      .   S
    Zr0    O60       3.94841      .   S
    N61    O62       2.89522  1_545   S
    Zr5    O62       3.73399      .   S
    N61    O63       2.89522      .   S
    Zr5    O63       3.73400      .   S
    N64    O65       2.89514      .   S
    Zr4    O65       3.73437      .   S
    N64    O66       2.89522  1_545   S
    Zr4    O66       3.73400      .   S
    N67    O68       3.09101  1_655   S
    Zr2    O68       4.13589  1_554   S
    N67    O69       2.97008      .   S
    Zr1    O69       3.94843      .   S
    N70    O71       1.07822      .   S
    Zr11   O71       1.83011  1_545   S
    N70    O72       1.07924      .   S
    Zr13   O72       1.83359  1_545   S
    N70    O73       4.20715      .   S
    Zr5    O73       2.30338      .   S
    N74    O75       1.07818      .   S
    Zr7    O75       1.82998  1_565   S
    N74    O76       1.07924      .   S
    Zr9    O76       1.83359  1_565   S
    N74    O77       4.20724      .   S
    Zr5    O77       2.30328      .   S
    N78    O79       3.24916  1_545   S
    Zr5    O79       4.30708      .   S
    N78    O80       3.24918      .   S
    Zr4    O80       4.30707      .   S
    N81    O82       3.24921  1_655   S
    Zr4    O82       4.30712      .   S
    N81    O83       3.24923  1_565   S
    Zr5    O83       4.30714      .   S
    N84    O85       1.07924      .   S
    Zr8    O85       1.83359  1_565   S
    N84    O86       1.07818      .   S
    Zr6    O86       1.82997  1_565   S
    N84    O87       4.20739      .   S
    Zr4    O87       2.30301      .   S
    N88    O89       1.07924      .   S
    Zr12   O89       1.83360  1_545   S
    N88    O90       1.07817      .   S
    Zr10   O90       1.82996  1_545   S
    N88    O91       4.20720      .   S
    Zr4    O91       2.30337      .   S
    N92    O93       3.09092      .   S
    Zr0    O93       4.13588  1_556   S
    N92    O94       2.97003      .   S
    Zr3    O94       3.94849      .   S
    N95    O96       2.97205      .   S
    Zr2    O96       3.94713      .   S
    N95    O97       3.09089  1_455   S
    Zr1    O97       4.13578  1_556   S
