# CIF file generated by openbabel 2.4.90, see http://openbabel.sf.net
data_I
_chemical_name_common ''
_cell_length_a 15.411
_cell_length_b 15.42
_cell_length_c 15.411
_cell_angle_alpha 60.015
_cell_angle_beta 60.035
_cell_angle_gamma 60.048
_space_group_name_H-M_alt 'P 1'
_space_group_name_Hall 'P 1'
loop_
    _symmetry_equiv_pos_as_xyz
    x,y,z
loop_
    _atom_site_label
    _atom_site_type_symbol
    _atom_site_fract_x
    _atom_site_fract_y
    _atom_site_fract_z
    _atom_site_occupancy
    Zn0     Zn   0.15414   0.15419   0.15404   1.000
    Zn1     Zn   0.53755   0.15428   0.15411   1.000
    Zn2     Zn   0.15428   0.53739   0.15422   1.000
    Zn3     Zn   0.84588   0.84575   0.46240   1.000
    Zn4     Zn   0.84588   0.84581   0.84597   1.000
    Zn5     Zn   0.84575   0.46261   0.84580   1.000
    Zn6     Zn   0.46248   0.84572   0.84591   1.000
    Zn7     Zn   0.25003   0.24999   0.25002   1.000
    Zn8     Zn   0.75000   0.75001   0.75000   1.000
    H9      H    0.99987   0.33282   0.66749   1.000
    H10     H    0.33269   0.99992   0.99988   1.000
    H11     H    0.00014   0.66718   0.33252   1.000
    H12     H    0.00002   0.66714   0.00034   1.000
    H13     H    0.33273   0.00012   0.66740   1.000
    H14     H    0.66729   0.99987   0.33262   1.000
    H15     H    0.99998   0.33287   0.99965   1.000
    H16     H    0.00014   0.99980   0.33262   1.000
    H17     H    0.33266   0.66716   0.00025   1.000
    H18     H    0.66736   0.33285   0.99974   1.000
    H19     H    0.99987   0.00020   0.66740   1.000
    C20     C    0.05341   0.40003   0.49327   1.000
    C21     C    0.40003   0.05338   0.05334   1.000
    C22     C    0.49319   0.05342   0.05339   1.000
    C23     C    0.05347   0.49312   0.40006   1.000
    C24     C    0.05342   0.49308   0.05348   1.000
    C25     C    0.40003   0.05351   0.49320   1.000
    C26     C    0.49315   0.05342   0.40002   1.000
    C27     C    0.05341   0.40002   0.05333   1.000
    C28     C    0.05345   0.05335   0.40001   1.000
    C29     C    0.40007   0.49310   0.05351   1.000
    C30     C    0.49320   0.40004   0.05338   1.000
    Zn31    Zn   0.15415   0.15425   0.53762   1.000
    C32     C    0.05338   0.05345   0.49319   1.000
    C33     C    0.60000   0.94649   0.50682   1.000
    C34     C    0.94661   0.59998   0.94668   1.000
    C35     C    0.94661   0.50692   0.94654   1.000
    C36     C    0.50687   0.94658   0.59999   1.000
    C37     C    0.50684   0.94658   0.94663   1.000
    C38     C    0.94661   0.59997   0.50674   1.000
    C39     C    0.94655   0.50688   0.59995   1.000
    C40     C    0.60000   0.94662   0.94660   1.000
    C41     C    0.94657   0.94665   0.60001   1.000
    C42     C    0.50682   0.59996   0.94660   1.000
    C43     C    0.59996   0.50690   0.94651   1.000
    C44     C    0.94665   0.94655   0.50682   1.000
    C45     C    0.99993   0.40347   0.59669   1.000
    C46     C    0.40340   0.99996   0.99993   1.000
    C47     C    0.59661   0.00004   0.30000   1.000
    C48     C    0.00007   0.59653   0.40332   1.000
    C49     C    0.99998   0.59651   0.00020   1.000
    C50     C    0.40343   0.00007   0.59665   1.000
    C51     C    0.59659   0.99993   0.40337   1.000
    C52     C    0.00002   0.40350   0.99979   1.000
    C53     C    0.00009   0.99987   0.40337   1.000
    C54     C    0.40340   0.59652   0.00014   1.000
    C55     C    0.59662   0.40349   0.99985   1.000
    C56     C    0.99991   0.00012   0.59665   1.000
    N57     N    0.11388   0.31454   0.45788   1.000
    N58     N    0.31453   0.11386   0.11376   1.000
    N59     N    0.45777   0.11391   0.11382   1.000
    N60     N    0.11397   0.45767   0.31450   1.000
    N61     N    0.11392   0.45759   0.11400   1.000
    N62     N    0.31451   0.11405   0.45775   1.000
    N63     N    0.45770   0.11394   0.31449   1.000
    N64     N    0.11392   0.31450   0.11370   1.000
    N65     N    0.11396   0.11381   0.31448   1.000
    N66     N    0.31457   0.45762   0.11405   1.000
    N67     N    0.45776   0.31453   0.11387   1.000
    N68     N    0.11385   0.11396   0.45775   1.000
    N69     N    0.68552   0.88595   0.54226   1.000
    N70     N    0.88611   0.68550   0.88624   1.000
    N71     N    0.88611   0.54241   0.88601   1.000
    N72     N    0.54233   0.88606   0.68552   1.000
    N73     N    0.54226   0.88609   0.88619   1.000
    N74     N    0.88614   0.68546   0.54213   1.000
    N75     N    0.88606   0.54233   0.68544   1.000
    N76     N    0.68549   0.88614   0.88626   1.000
    N77     N    0.88606   0.88619   0.68554   1.000
    N78     N    0.54226   0.68547   0.88610   1.000
    N79     N    0.68546   0.54238   0.88596   1.000
    N80     N    0.88618   0.88604   0.54226   1.000
    N81     N    0.14835   0.35172   0.35184   1.000
    N82     N    0.35176   0.14827   0.14819   1.000
    N83     N    0.14832   0.35164   0.14830   1.000
    N84     N    0.35170   0.14842   0.35171   1.000
    N85     N    0.14831   0.14830   0.35171   1.000
    N86     N    0.35176   0.35166   0.14830   1.000
    N87     N    0.64833   0.85158   0.64830   1.000
    N88     N    0.85170   0.64836   0.85171   1.000
    N89     N    0.64826   0.85173   0.85183   1.000
    N90     N    0.85167   0.64828   0.64818   1.000
    N91     N    0.85172   0.85170   0.64830   1.000
    N92     N    0.64827   0.64834   0.85164   1.000
    Cl93    Cl   0.09720   0.09712   0.70850   1.000
    Cl94    Cl   0.09681   0.09755   0.09700   1.000
    Cl95    Cl   0.70843   0.09761   0.09705   1.000
    Cl96    Cl   0.09752   0.70820   0.09683   1.000
    Cl97    Cl   0.90282   0.90288   0.29146   1.000
    Cl98    Cl   0.90322   0.90245   0.90298   1.000
    Cl99    Cl   0.90250   0.29180   0.90318   1.000
    Cl100   Cl   0.29160   0.90239   0.90297   1.000
loop_
    _geom_bond_atom_site_label_1
    _geom_bond_atom_site_label_2
    _geom_bond_distance
    _geom_bond_site_symmetry_2
    _ccdc_geom_bond_type
    C54    H17       1.09052      .   S
    C54    C29       1.39668      .   S
    C54    C42       1.39676  1_554   S
    C49    H12       1.09051  1_655   S
    C49    C24       1.39677  1_655   S
    C49    C34       1.39614  1_554   S
    C27    C24       1.43626      .   S
    C27    N64       1.37350      .   S
    C27    C52       1.39666  1_554   S
    C21    C22       1.43633      .   S
    C21    N58       1.37410      .   S
    C21    C46       1.39678  1_544   S
    C30    C29       1.43622      .   S
    C30    N67       1.37400      .   S
    C30    C55       1.39669  1_554   S
    C22    N59       1.37384      .   S
    C24    N61       1.37388      .   S
    C29    N66       1.37392      .   S
    Cl96   Zn2       2.15143      .   S
    Cl94   Zn0       2.15183      .   S
    Cl95   Zn1       2.15144      .   S
    N64    N83       1.33576      .   S
    N64    Zn0       2.04938      .   S
    N58    N82       1.33488      .   S
    N58    Zn0       2.04934      .   S
    N59    N82       1.33485      .   S
    N59    Zn1       2.04885      .   S
    N67    N86       1.33486      .   S
    N67    Zn1       2.04910      .   S
    N61    N83       1.33474      .   S
    N61    Zn2       2.04871      .   S
    N66    N86       1.33474      .   S
    N66    Zn2       2.04883      .   S
    N82    Zn7       2.21987      .   S
    N83    Zn7       2.21725      .   S
    N86    Zn7       2.21723      .   S
    Zn0    N65       2.04971      .   S
    Zn1    N63       2.04926      .   S
    Zn2    N60       2.04768      .   S
    Zn7    N84       2.21652      .   S
    Zn7    N85       2.21733      .   S
    Zn7    N81       2.21988      .   S
    Cl97   Zn3       2.15150      .   S
    N65    N85       1.33474      .   S
    N65    C28       1.37407      .   S
    N63    N84       1.33483      .   S
    N63    C26       1.37391      .   S
    N60    N81       1.33480      .   S
    N60    C23       1.37483      .   S
    H11    C48       1.09052      .   S
    H16    C53       1.09056      .   S
    H14    C51       1.09051      .   S
    N84    N62       1.33489      .   S
    N85    N68       1.33488      .   S
    N81    N57       1.33487      .   S
    C28    C53       1.39671  1_545   S
    C28    C32       1.43621      .   S
    C26    C51       1.39672  1_545   S
    C26    C25       1.43633      .   S
    C26    C47       1.76020      .   S
    C23    C48       1.39671      .   S
    C23    C20       1.43626      .   S
    C48    C38       1.39675  1_455   S
    C53    C44       1.39660  1_455   S
    C51    C33       1.39668      .   S
    C51    C47       1.59202  1_565   S
    N68    C32       1.37399      .   S
    N68    Zn31      2.04933      .   S
    N62    C25       1.37403      .   S
    N62    Zn31      2.04959      .   S
    N57    C20       1.37400      .   S
    N57    Zn31      2.04911      .   S
    Zn3    N74       2.04909      .   S
    Zn3    N80       2.04919      .   S
    Zn3    N69       2.04957      .   S
    C32    C56       1.39681  1_455   S
    C25    C50       1.39668      .   S
    C20    C45       1.39676  1_455   S
    C38    N74       1.37402      .   S
    C38    C39       1.43626      .   S
    C44    N80       1.37400      .   S
    C44    C41       1.43636      .   S
    C33    N69       1.37395      .   S
    C33    C36       1.43626      .   S
    Zn31   Cl93      2.15074      .   S
    N74    N90       1.33500      .   S
    N80    N91       1.33488      .   S
    N69    N87       1.33489      .   S
    C50    C36       1.39668  1_545   S
    C50    H13       1.09052      .   S
    C56    C41       1.39637  1_545   S
    C56    H19       1.09056      .   S
    C45    C39       1.39670      .   S
    C45    H9        1.09053      .   S
    C39    N75       1.37394      .   S
    C36    N72       1.37392      .   S
    C41    N77       1.37407      .   S
    N90    N75       1.33478      .   S
    N90    Zn8       2.21988      .   S
    N87    N72       1.33482      .   S
    N87    Zn8       2.21664      .   S
    N91    N77       1.33488      .   S
    N91    Zn8       2.21732      .   S
    N75    Zn5       2.04861      .   S
    N72    Zn6       2.04938      .   S
    N77    Zn4       2.04957      .   S
    Zn8    N92       2.21723      .   S
    Zn8    N88       2.21714      .   S
    Zn8    N89       2.21987      .   S
    Zn5    N79       2.04882      .   S
    Zn5    N71       2.04860      .   S
    Zn5    Cl99      2.15143      .   S
    Zn6    N78       2.04910      .   S
    Zn6    N73       2.04873      .   S
    Zn6    Cl100     2.15144      .   S
    Zn4    N70       2.04953      .   S
    Zn4    N76       2.04932      .   S
    Zn4    Cl98      2.15146      .   S
    N92    N79       1.33475      .   S
    N92    N78       1.33486      .   S
    N88    N71       1.33473      .   S
    N88    N70       1.33489      .   S
    N89    N73       1.33485      .   S
    N89    N76       1.33486      .   S
    N79    C43       1.37393      .   S
    N71    C35       1.37401      .   S
    N78    C42       1.37398      .   S
    N73    C37       1.37394      .   S
    N70    C34       1.37409      .   S
    N76    C40       1.37345      .   S
    C43    C42       1.43622      .   S
    C43    C55       1.39660      .   S
    C35    C34       1.43616      .   S
    C35    C52       1.39645  1_655   S
    C40    C37       1.43574      .   S
    C37    C46       1.39674      .   S
    H15    C52       1.09051  1_655   S
    H18    C55       1.09053      .   S
    H10    C46       1.09053      .   S
