# CIF file generated by openbabel 2.4.90, see http://openbabel.sf.net
data_I
_chemical_name_common ''
_cell_length_a 15.411
_cell_length_b 15.42
_cell_length_c 15.411
_cell_angle_alpha 60.015
_cell_angle_beta 60.035
_cell_angle_gamma 60.048
_space_group_name_H-M_alt 'P 1'
_space_group_name_Hall 'P 1'
loop_
    _symmetry_equiv_pos_as_xyz
    x,y,z
loop_
    _atom_site_label
    _atom_site_type_symbol
    _atom_site_fract_x
    _atom_site_fract_y
    _atom_site_fract_z
    _atom_site_occupancy
    Zn0     Zn   0.15414   0.15419   0.15404   1.000
    Zn1     Zn   0.53755   0.15428   0.15411   1.000
    Zn2     Zn   0.15428   0.53739   0.15422   1.000
    Zn3     Zn   0.84588   0.84575   0.46240   1.000
    Zn4     Zn   0.84588   0.84581   0.84597   1.000
    Zn5     Zn   0.84575   0.46261   0.84580   1.000
    Zn6     Zn   0.46248   0.84572   0.84591   1.000
    Zn7     Zn   0.25003   0.24999   0.25002   1.000
    Zn8     Zn   0.75000   0.75001   0.75000   1.000
    C9      C    0.05341   0.40003   0.49327   1.000
    C10     C    0.40003   0.05338   0.05334   1.000
    C11     C    0.49319   0.05342   0.05339   1.000
    C12     C    0.05347   0.49312   0.40006   1.000
    C13     C    0.05342   0.49308   0.05348   1.000
    C14     C    0.40003   0.05351   0.49320   1.000
    C15     C    0.49315   0.05342   0.40002   1.000
    C16     C    0.05341   0.40002   0.05333   1.000
    C17     C    0.05345   0.05335   0.40001   1.000
    C18     C    0.40007   0.49310   0.05351   1.000
    C19     C    0.49320   0.40004   0.05338   1.000
    Zn20    Zn   0.15415   0.15425   0.53762   1.000
    C21     C    0.05338   0.05345   0.49319   1.000
    C22     C    0.60000   0.94649   0.50682   1.000
    C23     C    0.94661   0.59998   0.94668   1.000
    C24     C    0.94661   0.50692   0.94654   1.000
    C25     C    0.50687   0.94658   0.59999   1.000
    C26     C    0.50684   0.94658   0.94663   1.000
    C27     C    0.94661   0.59997   0.50674   1.000
    C28     C    0.94655   0.50688   0.59995   1.000
    C29     C    0.60000   0.94662   0.94660   1.000
    C30     C    0.94657   0.94665   0.60001   1.000
    C31     C    0.50682   0.59996   0.94660   1.000
    C32     C    0.59996   0.50690   0.94651   1.000
    C33     C    0.94665   0.94655   0.50682   1.000
    N34     N    0.11388   0.31454   0.45788   1.000
    N35     N    0.31453   0.11386   0.11376   1.000
    N36     N    0.45777   0.11391   0.11382   1.000
    N37     N    0.11397   0.45767   0.31450   1.000
    N38     N    0.11392   0.45759   0.11400   1.000
    N39     N    0.31451   0.11405   0.45775   1.000
    N40     N    0.45770   0.11394   0.31449   1.000
    N41     N    0.11392   0.31450   0.11370   1.000
    N42     N    0.11396   0.11381   0.31448   1.000
    N43     N    0.31457   0.45762   0.11405   1.000
    N44     N    0.45776   0.31453   0.11387   1.000
    N45     N    0.11385   0.11396   0.45775   1.000
    N46     N    0.68552   0.88595   0.54226   1.000
    N47     N    0.88611   0.68550   0.88624   1.000
    N48     N    0.88611   0.54241   0.88601   1.000
    N49     N    0.54233   0.88606   0.68552   1.000
    N50     N    0.54226   0.88609   0.88619   1.000
    N51     N    0.88614   0.68546   0.54213   1.000
    N52     N    0.88606   0.54233   0.68544   1.000
    N53     N    0.68549   0.88614   0.88626   1.000
    N54     N    0.88606   0.88619   0.68554   1.000
    N55     N    0.54226   0.68547   0.88610   1.000
    N56     N    0.68546   0.54238   0.88596   1.000
    N57     N    0.88618   0.88604   0.54226   1.000
    N58     N    0.14835   0.35172   0.35184   1.000
    N59     N    0.35176   0.14827   0.14819   1.000
    N60     N    0.14832   0.35164   0.14830   1.000
    N61     N    0.35170   0.14842   0.35171   1.000
    N62     N    0.14831   0.14830   0.35171   1.000
    N63     N    0.35176   0.35166   0.14830   1.000
    N64     N    0.64833   0.85158   0.64830   1.000
    N65     N    0.85170   0.64836   0.85171   1.000
    N66     N    0.64826   0.85173   0.85183   1.000
    N67     N    0.85167   0.64828   0.64818   1.000
    N68     N    0.85172   0.85170   0.64830   1.000
    N69     N    0.64827   0.64834   0.85164   1.000
    Cl70    Cl   0.09720   0.09712   0.70850   1.000
    Cl71    Cl   0.09681   0.09755   0.09700   1.000
    Cl72    Cl   0.70843   0.09761   0.09705   1.000
    Cl73    Cl   0.09752   0.70820   0.09683   1.000
    Cl74    Cl   0.90282   0.90288   0.29146   1.000
    Cl75    Cl   0.90322   0.90245   0.90298   1.000
    Cl76    Cl   0.90250   0.29180   0.90318   1.000
    Cl77    Cl   0.29160   0.90239   0.90297   1.000
    Ts78    Ts   0.03559   0.40118   0.52774   1.000
    Ts79    Ts   0.40115   0.03558   0.03554   1.000
    Ts80    Ts   0.03567   0.52759   0.40115   1.000
    Ts81    Ts   0.03561   0.52756   0.03572   1.000
    Ts82    Ts   0.40116   0.03569   0.52768   1.000
    Ts83    Ts   0.52764   0.03562   0.36668   1.000
    Ts84    Ts   0.52763   0.03559   0.40114   1.000
    Ts85    Ts   0.03562   0.40118   0.03548   1.000
    Ts86    Ts   0.03567   0.03553   0.40113   1.000
    Ts87    Ts   0.40118   0.52757   0.03572   1.000
    Ts88    Ts   0.52768   0.40119   0.03554   1.000
    Ts89    Ts   0.03556   0.03567   0.52768   1.000
    Ts90    Ts   0.59886   0.96430   0.47234   1.000
    Ts91    Ts   0.96440   0.59882   0.96452   1.000
    Ts92    Ts   0.96441   0.47244   0.96429   1.000
    Ts93    Ts   0.47239   0.96441   0.59888   1.000
    Ts94    Ts   0.47236   0.96437   0.96440   1.000
    Ts95    Ts   0.96443   0.59882   0.47227   1.000
    Ts96    Ts   0.96435   0.47241   0.59886   1.000
    Ts97    Ts   0.96435   0.96447   0.59889   1.000
    Ts98    Ts   0.47235   0.59881   0.96445   1.000
    Ts99    Ts   0.59885   0.47243   0.96429   1.000
    Ts100   Ts   0.96446   0.96432   0.47234   1.000
loop_
    _geom_bond_atom_site_label_1
    _geom_bond_atom_site_label_2
    _geom_bond_distance
    _geom_bond_site_symmetry_2
    _ccdc_geom_bond_type
    C16    C13       1.43626      .   S
    C16    N41       1.37350      .   S
    C10    C11       1.43633      .   S
    C10    N35       1.37410      .   S
    C19    C18       1.43622      .   S
    C19    N44       1.37400      .   S
    C11    N36       1.37384      .   S
    C13    N38       1.37388      .   S
    C18    N43       1.37392      .   S
    Cl73   Zn2       2.15143      .   S
    Cl71   Zn0       2.15183      .   S
    Cl72   Zn1       2.15144      .   S
    N41    N60       1.33576      .   S
    N41    Zn0       2.04938      .   S
    N35    N59       1.33488      .   S
    N35    Zn0       2.04934      .   S
    N36    N59       1.33485      .   S
    N36    Zn1       2.04885      .   S
    N44    N63       1.33486      .   S
    N44    Zn1       2.04910      .   S
    N38    N60       1.33474      .   S
    N38    Zn2       2.04871      .   S
    N43    N63       1.33474      .   S
    N43    Zn2       2.04883      .   S
    N59    Zn7       2.21987      .   S
    N60    Zn7       2.21725      .   S
    N63    Zn7       2.21723      .   S
    Zn0    N42       2.04971      .   S
    Zn1    N40       2.04926      .   S
    Zn2    N37       2.04768      .   S
    Zn7    N61       2.21652      .   S
    Zn7    N62       2.21733      .   S
    Zn7    N58       2.21988      .   S
    Cl74   Zn3       2.15150      .   S
    N42    N62       1.33474      .   S
    N42    C17       1.37407      .   S
    N40    N61       1.33483      .   S
    N40    C15       1.37391      .   S
    N37    N58       1.33480      .   S
    N37    C12       1.37483      .   S
    N61    N39       1.33489      .   S
    N62    N45       1.33488      .   S
    N58    N34       1.33487      .   S
    C17    C21       1.43621      .   S
    C15    C14       1.43633      .   S
    C12    C9        1.43626      .   S
    N45    C21       1.37399      .   S
    N45    Zn20      2.04933      .   S
    N39    C14       1.37403      .   S
    N39    Zn20      2.04959      .   S
    N34    C9        1.37400      .   S
    N34    Zn20      2.04911      .   S
    Zn3    N51       2.04909      .   S
    Zn3    N57       2.04919      .   S
    Zn3    N46       2.04957      .   S
    C27    N51       1.37402      .   S
    C27    C28       1.43626      .   S
    C33    N57       1.37400      .   S
    C33    C30       1.43636      .   S
    C22    N46       1.37395      .   S
    C22    C25       1.43626      .   S
    Zn20   Cl70      2.15074      .   S
    N51    N67       1.33500      .   S
    N57    N68       1.33488      .   S
    N46    N64       1.33489      .   S
    C28    N52       1.37394      .   S
    C25    N49       1.37392      .   S
    C30    N54       1.37407      .   S
    N67    N52       1.33478      .   S
    N67    Zn8       2.21988      .   S
    N64    N49       1.33482      .   S
    N64    Zn8       2.21664      .   S
    N68    N54       1.33488      .   S
    N68    Zn8       2.21732      .   S
    N52    Zn5       2.04861      .   S
    N49    Zn6       2.04938      .   S
    N54    Zn4       2.04957      .   S
    Zn8    N69       2.21723      .   S
    Zn8    N65       2.21714      .   S
    Zn8    N66       2.21987      .   S
    Zn5    N56       2.04882      .   S
    Zn5    N48       2.04860      .   S
    Zn5    Cl76      2.15143      .   S
    Zn6    N55       2.04910      .   S
    Zn6    N50       2.04873      .   S
    Zn6    Cl77      2.15144      .   S
    Zn4    N47       2.04953      .   S
    Zn4    N53       2.04932      .   S
    Zn4    Cl75      2.15146      .   S
    N69    N56       1.33475      .   S
    N69    N55       1.33486      .   S
    N65    N48       1.33473      .   S
    N65    N47       1.33489      .   S
    N66    N50       1.33485      .   S
    N66    N53       1.33486      .   S
    N56    C32       1.37393      .   S
    N48    C24       1.37401      .   S
    N55    C31       1.37398      .   S
    N50    C26       1.37394      .   S
    N47    C23       1.37409      .   S
    N53    C29       1.37345      .   S
    C32    C31       1.43622      .   S
    C24    C23       1.43616      .   S
    C29    C26       1.43574      .   S
    C9     Ts78      0.46559      .   S
    C10    Ts79      0.46559      .   S
    C12    Ts80      0.46557      .   S
    C13    Ts81      0.46559      .   S
    C14    Ts82      0.46556      .   S
    C15    Ts83      0.58673      .   S
    C15    Ts84      0.46557      .   S
    C16    Ts85      0.46555      .   S
    C17    Ts86      0.46557      .   S
    C18    Ts87      0.46556      .   S
    C19    Ts88      0.46556      .   S
    C21    Ts89      0.46560      .   S
    C22    Ts90      0.46556      .   S
    C23    Ts91      0.46538      .   S
    C24    Ts92      0.46548      .   S
    C25    Ts93      0.46556      .   S
    C26    Ts94      0.46558      .   S
    C27    Ts95      0.46558      .   S
    C28    Ts96      0.46557      .   S
    C30    Ts97      0.46546      .   S
    C31    Ts98      0.46559      .   S
    C32    Ts99      0.46553      .   S
    C33    Ts100     0.46553      .   S
