# CIF file generated by openbabel 2.4.90, see http://openbabel.sf.net
data_I
_chemical_name_common ''
_cell_length_a 15.411
_cell_length_b 15.42
_cell_length_c 15.411
_cell_angle_alpha 60.015
_cell_angle_beta 60.035
_cell_angle_gamma 60.048
_space_group_name_H-M_alt 'P 1'
_space_group_name_Hall 'P 1'
loop_
    _symmetry_equiv_pos_as_xyz
    x,y,z
loop_
    _atom_site_label
    _atom_site_type_symbol
    _atom_site_fract_x
    _atom_site_fract_y
    _atom_site_fract_z
    _atom_site_occupancy
    N0      N    0.00012   0.99984   0.36800   1.000
    N1      N    0.66733   0.00008   0.00011   1.000
    N2      N    0.36808   0.00010   0.63202   1.000
    N3      N    0.36803   0.63184   0.00020   1.000
    N4      N    0.00000   0.36818   0.99972   1.000
    N5      N    0.00000   0.63182   0.00027   1.000
    N6      N    0.36805   0.99994   0.99991   1.000
    N7      N    0.99989   0.00016   0.63202   1.000
    N8      N    0.99990   0.36814   0.63209   1.000
    N9      N    0.63199   0.36817   0.99979   1.000
    N10     N    0.00011   0.63186   0.36792   1.000
    N11     N    0.62017   0.99994   0.34533   1.000
    Zr12    Zr   0.25002   0.25001   0.24999   1.000
    O13     O    0.13165   0.31748   0.41926   1.000
    O14     O    0.13169   0.31749   0.13157   1.000
    O15     O    0.13169   0.41916   0.13177   1.000
    O16     O    0.13164   0.13174   0.41923   1.000
    O17     O    0.13173   0.41918   0.31740   1.000
    O18     O    0.41924   0.31749   0.13160   1.000
    O19     O    0.31746   0.13173   0.41923   1.000
    O20     O    0.41627   0.13167   0.29883   1.000
    O21     O    0.41627   0.13166   0.31175   1.000
    O22     O    0.13173   0.13162   0.31742   1.000
    O23     O    0.31745   0.13166   0.13163   1.000
    O24     O    0.31745   0.41917   0.13175   1.000
    Zr25    Zr   0.75000   0.74999   0.75001   1.000
    O26     O    0.86833   0.68251   0.86843   1.000
    O27     O    0.86833   0.58084   0.86823   1.000
    O28     O    0.68257   0.58083   0.86825   1.000
    O29     O    0.58081   0.86835   0.68259   1.000
    O30     O    0.58079   0.68251   0.86840   1.000
    O31     O    0.86836   0.68252   0.58074   1.000
    O32     O    0.86829   0.58082   0.68261   1.000
    O33     O    0.67962   0.86828   0.57511   1.000
    O34     O    0.86837   0.86825   0.58078   1.000
    O35     O    0.86828   0.86838   0.68259   1.000
    O36     O    0.58079   0.86830   0.86830   1.000
loop_
    _geom_bond_atom_site_label_1
    _geom_bond_atom_site_label_2
    _geom_bond_distance
    _geom_bond_site_symmetry_2
    _ccdc_geom_bond_type
    Zr12   O13       2.69797      .   S
    N8     O13       3.13294  1_655   S
    Zr12   O14       2.69646      .   S
    N4     O14       3.13146  1_556   S
    Zr12   O15       2.69583      .   S
    N5     O15       3.13042      .   S
    Zr12   O16       2.69654      .   S
    N7     O16       3.13136  1_655   S
    Zr12   O17       2.69724      .   S
    N10    O17       3.13176      .   S
    Zr12   O18       2.69645      .   S
    N9     O18       3.13139  1_556   S
    Zr12   O19       2.69622      .   S
    N2     O19       3.13106      .   S
    Zr12   O20       2.51907      .   S
    N11    O20       2.98896  1_565   S
    Zr12   O21       2.61370      .   S
    N11    O21       2.90990  1_565   S
    Zr12   O22       2.69642      .   S
    N0     O22       3.13120  1_565   S
    Zr12   O23       2.69775      .   S
    N6     O23       3.13260  1_566   S
    Zr12   O24       2.69595      .   S
    N3     O24       3.13058      .   S
    Zr25   O26       2.69631      .   S
    N5     O26       3.13118  1_454   S
    Zr25   O27       2.69573      .   S
    N4     O27       3.13022  1_455   S
    Zr25   O28       2.69594      .   S
    N9     O28       3.13055      .   S
    Zr25   O29       2.69595      .   S
    N2     O29       3.13069  1_545   S
    Zr25   O30       2.69646      .   S
    N3     O30       3.13142  1_554   S
    Zr25   O31       2.69792      .   S
    N10    O31       3.13289  1_455   S
    Zr25   O32       2.69721      .   S
    N8     O32       3.13173      .   S
    Zr25   O33       2.79276      .   S
    N11    O33       3.42032      .   S
    Zr25   O34       2.69643      .   S
    N0     O34       3.13119  1_455   S
    Zr25   O35       2.69633      .   S
    N7     O35       3.13104  1_545   S
    Zr25   O36       2.69751      .   S
    N6     O36       3.13216      .   S
