# CIF file generated by openbabel 2.4.90, see http://openbabel.sf.net
data_I
_chemical_name_common ''
_cell_length_a 6.378
_cell_length_b 12.29
_cell_length_c 15.5126
_cell_angle_alpha 89.9841
_cell_angle_beta 78.4341
_cell_angle_gamma 89.976
_space_group_name_H-M_alt 'P 1'
_space_group_name_Hall 'P 1'
loop_
    _symmetry_equiv_pos_as_xyz
    x,y,z
loop_
    _atom_site_label
    _atom_site_type_symbol
    _atom_site_fract_x
    _atom_site_fract_y
    _atom_site_fract_z
    _atom_site_occupancy
    Ca0     Ca   0.29696   0.54761   0.44134   1.000
    Ca1     Ca   0.29689   0.95246   0.94134   1.000
    Ca2     Ca   0.70288   0.45253   0.55868   1.000
    C3      C    0.55273   0.37367   0.35598   1.000
    C4      C    0.16734   0.13349   0.10416   1.000
    C5      C    0.44731   0.87338   0.14401   1.000
    C6      C    0.83263   0.63354   0.39590   1.000
    Ca7     Ca   0.70270   0.04745   0.05880   1.000
    C8      C    0.44725   0.62675   0.64396   1.000
    C9      C    0.83291   0.86671   0.89595   1.000
    C10     C    0.55266   0.12673   0.85608   1.000
    C11     C    0.16727   0.36662   0.60413   1.000
    O12     O    0.08876   0.07773   0.04788   1.000
    O13     O    0.36020   0.13505   0.11152   1.000
    O14     O    0.38145   0.40353   0.33325   1.000
    O15     O    0.60032   0.39961   0.42951   1.000
    O16     O    0.91125   0.57766   0.45214   1.000
    O17     O    0.63975   0.63522   0.38860   1.000
    O18     O    0.61859   0.90338   0.16666   1.000
    O19     O    0.39942   0.89904   0.07047   1.000
    O20     O    0.91180   0.92243   0.95218   1.000
    O21     O    0.63997   0.86521   0.88872   1.000
    O22     O    0.61834   0.59645   0.66666   1.000
    O23     O    0.39939   0.60132   0.57038   1.000
    O24     O    0.08838   0.42231   0.54784   1.000
    O25     O    0.36023   0.36505   0.61136   1.000
    O26     O    0.38190   0.09640   0.83319   1.000
    O27     O    0.59990   0.10127   0.92978   1.000
    Og28    Og   0.60695   0.35266   0.33459   1.000
    Og29    Og   0.11497   0.15587   0.12569   1.000
    Og30    Og   0.39310   0.85244   0.16545   1.000
    Og31    Og   0.88500   0.65589   0.37435   1.000
    Og32    Og   0.39308   0.64772   0.66540   1.000
    Og33    Og   0.88522   0.84435   0.87438   1.000
    Og34    Og   0.60688   0.14771   0.83468   1.000
    Og35    Og   0.11493   0.34430   0.62572   1.000
loop_
    _geom_bond_atom_site_label_1
    _geom_bond_atom_site_label_2
    _geom_bond_distance
    _geom_bond_site_symmetry_2
    _ccdc_geom_bond_type
    O12    C4        1.28808      .   S
    Ca7    O18       2.42118  1_545   S
    Ca7    O27       2.32341  1_554   S
    O19    C5        1.27822      .   S
    O19    Ca1       2.32272  1_554   S
    C4     O13       1.25806      .   S
    C5     O18       1.26773      .   S
    O14    C3        1.26746      .   S
    O14    Ca0       2.42403      .   S
    C3     O15       1.27822      .   S
    O17    C6        1.25794      .   S
    C6     O16       1.28808      .   S
    O15    Ca2       2.32226      .   S
    Ca0    O23       2.32274      .   S
    O24    C11       1.28822      .   S
    Ca2    O22       2.42158      .   S
    O23    C8        1.27816      .   S
    C11    O25       1.25814      .   S
    C8     O22       1.26769      .   S
    O26    C10       1.26756      .   S
    O26    Ca1       2.42331  1_545   S
    C10    O27       1.27802      .   S
    O21    C9        1.25801      .   S
    C9     O20       1.28818      .   S
    O12    Ca7       2.46239  1_455   S
    O12    Ca1       2.44612  1_544   S
    O13    Ca7       2.42530      .   S
    O15    Ca0       2.63443      .   S
    O16    Ca0       2.45978  1_655   S
    O16    Ca2       2.44592      .   S
    O17    Ca0       2.42750      .   S
    O19    Ca7       2.63896  1_565   S
    O20    Ca7       2.44752  1_566   S
    O20    Ca1       2.45603  1_655   S
    O21    Ca1       2.42625      .   S
    O23    Ca2       2.64195      .   S
    O24    Ca0       2.44740      .   S
    O24    Ca2       2.45866  1_455   S
    O25    Ca2       2.42585      .   S
    O27    Ca1       2.64112  1_545   S
    C3     Og28      0.50032      .   S
    C4     Og29      0.50399      .   S
    C5     Og30      0.50026      .   S
    C6     Og31      0.50399      .   S
    C8     Og32      0.50025      .   S
    C9     Og33      0.50396      .   S
    C10    Og34      0.50032      .   S
    C11    Og35      0.50403      .   S
