# CIF file generated by openbabel 2.4.90, see http://openbabel.sf.net
data_I
_chemical_name_common ''
_cell_length_a 6.378
_cell_length_b 12.29
_cell_length_c 15.5126
_cell_angle_alpha 89.9841
_cell_angle_beta 78.4341
_cell_angle_gamma 89.976
_space_group_name_H-M_alt 'P 1'
_space_group_name_Hall 'P 1'
loop_
    _symmetry_equiv_pos_as_xyz
    x,y,z
loop_
    _atom_site_label
    _atom_site_type_symbol
    _atom_site_fract_x
    _atom_site_fract_y
    _atom_site_fract_z
    _atom_site_occupancy
    C0      C    0.55273   0.37367   0.35598   1.000
    C1      C    0.16734   0.13349   0.10416   1.000
    C2      C    0.44731   0.87338   0.14401   1.000
    C3      C    0.83263   0.63354   0.39590   1.000
    C4      C    0.44725   0.62675   0.64396   1.000
    C5      C    0.83291   0.86671   0.89595   1.000
    C6      C    0.55266   0.12673   0.85608   1.000
    C7      C    0.16727   0.36662   0.60413   1.000
    O8      O    0.08876   0.07773   0.04788   1.000
    O9      O    0.36020   0.13505   0.11152   1.000
    O10     O    0.38145   0.40353   0.33325   1.000
    O11     O    0.60032   0.39961   0.42951   1.000
    O12     O    0.91125   0.57766   0.45214   1.000
    O13     O    0.63975   0.63522   0.38860   1.000
    O14     O    0.61859   0.90338   0.16666   1.000
    O15     O    0.39942   0.89904   0.07047   1.000
    O16     O    0.91180   0.92243   0.95218   1.000
    O17     O    0.63997   0.86521   0.88872   1.000
    O18     O    0.61834   0.59645   0.66666   1.000
    O19     O    0.39939   0.60132   0.57038   1.000
    O20     O    0.08838   0.42231   0.54784   1.000
    O21     O    0.36023   0.36505   0.61136   1.000
    O22     O    0.38190   0.09640   0.83319   1.000
    O23     O    0.59990   0.10127   0.92978   1.000
loop_
    _geom_bond_atom_site_label_1
    _geom_bond_atom_site_label_2
    _geom_bond_distance
    _geom_bond_site_symmetry_2
    _ccdc_geom_bond_type
    O8     C1        1.28808      .   S
    O15    C2        1.27822      .   S
    C1     O9        1.25806      .   S
    C2     O14       1.26773      .   S
    O10    C0        1.26746      .   S
    C0     O11       1.27822      .   S
    O13    C3        1.25794      .   S
    C3     O12       1.28808      .   S
    O20    C7        1.28822      .   S
    O19    C4        1.27816      .   S
    C7     O21       1.25814      .   S
    C4     O18       1.26769      .   S
    O22    C6        1.26756      .   S
    C6     O23       1.27802      .   S
    O17    C5        1.25801      .   S
    C5     O16       1.28818      .   S
