# CIF file generated by openbabel 2.4.90, see http://openbabel.sf.net
data_I
_chemical_name_common ''
_cell_length_a 6.378
_cell_length_b 12.29
_cell_length_c 15.5126
_cell_angle_alpha 89.9841
_cell_angle_beta 78.4341
_cell_angle_gamma 89.976
_space_group_name_H-M_alt 'P 1'
_space_group_name_Hall 'P 1'
loop_
    _symmetry_equiv_pos_as_xyz
    x,y,z
loop_
    _atom_site_label
    _atom_site_type_symbol
    _atom_site_fract_x
    _atom_site_fract_y
    _atom_site_fract_z
    _atom_site_occupancy
    C0      C    0.70270   0.04745   0.05880   1.000
    C1      C    0.29696   0.54761   0.44134   1.000
    C2      C    0.29689   0.95246   0.94134   1.000
    C3      C    0.70288   0.45253   0.55868   1.000
    C4      C    0.25045   0.29805   0.21264   1.000
    C5      C    0.49003   0.21076   0.23893   1.000
    C6      C    0.98537   0.39454   0.32606   1.000
    C7      C    0.74973   0.79842   0.28743   1.000
    C8      C    0.50985   0.71100   0.26174   1.000
    C9      C    0.01499   0.89461   0.17392   1.000
    C10     C    0.74969   0.70168   0.78780   1.000
    C11     C    0.50989   0.78902   0.76175   1.000
    C12     C    0.01469   0.60533   0.67424   1.000
    C13     C    0.25028   0.20192   0.71277   1.000
    C14     C    0.49015   0.28929   0.73850   1.000
    C15     C    0.98509   0.10571   0.82629   1.000
    C16     C    0.71540   0.31066   0.29180   1.000
    C17     C    0.01022   0.20062   0.16875   1.000
    C18     C    0.08137   0.27938   0.22088   1.000
    C19     C    0.65699   0.23210   0.23561   1.000
    C20     C    0.93284   0.33414   0.28372   1.000
    C21     C    0.55273   0.37367   0.35598   1.000
    C22     C    0.16734   0.13349   0.10416   1.000
    C23     C    0.28469   0.81056   0.20832   1.000
    C24     C    0.98974   0.70058   0.33125   1.000
    C25     C    0.91874   0.77948   0.27913   1.000
    C26     C    0.34292   0.73226   0.26479   1.000
    C27     C    0.06738   0.83408   0.21624   1.000
    C28     C    0.44731   0.87338   0.14401   1.000
    C29     C    0.83263   0.63354   0.39590   1.000
    C30     C    0.28473   0.68966   0.70826   1.000
    C31     C    0.98984   0.79964   0.83125   1.000
    C32     C    0.91871   0.72063   0.77933   1.000
    C33     C    0.34296   0.76783   0.76478   1.000
    C34     C    0.06721   0.66597   0.71639   1.000
    C35     C    0.44725   0.62675   0.64396   1.000
    C36     C    0.83291   0.86671   0.89595   1.000
    C37     C    0.71532   0.18969   0.79188   1.000
    C38     C    0.01024   0.29967   0.66890   1.000
    C39     C    0.08126   0.22084   0.72107   1.000
    C40     C    0.65709   0.26800   0.73541   1.000
    C41     C    0.93265   0.16622   0.78397   1.000
    C42     C    0.55266   0.12673   0.85608   1.000
    C43     C    0.16727   0.36662   0.60413   1.000
    C44     C    0.79958   0.17769   0.17534   1.000
    C45     C    0.20011   0.67793   0.32502   1.000
    C46     C    0.20013   0.82215   0.82503   1.000
    C47     C    0.79985   0.32232   0.67515   1.000
    C48     C    0.08876   0.07773   0.04788   1.000
    C49     C    0.36020   0.13505   0.11152   1.000
    C50     C    0.38145   0.40353   0.33325   1.000
    C51     C    0.60032   0.39961   0.42951   1.000
    C52     C    0.91125   0.57766   0.45214   1.000
    C53     C    0.63975   0.63522   0.38860   1.000
    C54     C    0.61859   0.90338   0.16666   1.000
    C55     C    0.39942   0.89904   0.07047   1.000
    C56     C    0.91180   0.92243   0.95218   1.000
    C57     C    0.63997   0.86521   0.88872   1.000
    C58     C    0.61834   0.59645   0.66666   1.000
    C59     C    0.39939   0.60132   0.57038   1.000
    C60     C    0.08838   0.42231   0.54784   1.000
    C61     C    0.36023   0.36505   0.61136   1.000
    C62     C    0.38190   0.09640   0.83319   1.000
    C63     C    0.59990   0.10127   0.92978   1.000
    O64     O    0.12805   0.10561   0.07602   1.000
    O65     O    0.66065   0.97542   0.11273   1.000
    O66     O    0.65130   0.07436   0.99429   1.000
    O67     O    0.42336   0.88621   0.10724   1.000
    O68     O    0.34815   0.92575   0.00591   1.000
    O69     O    0.26377   0.13427   0.10784   1.000
    O70     O    0.08878   0.16706   0.13646   1.000
    O71     O    0.53295   0.88838   0.15534   1.000
    O72     O    0.36600   0.84197   0.17616   1.000
    O73     O    0.90490   0.18915   0.17205   1.000
    O74     O    0.04579   0.24000   0.19482   1.000
    O75     O    0.04118   0.86435   0.19508   1.000
    O76     O    0.72829   0.20490   0.20548   1.000
    O77     O    0.17603   0.82232   0.21228   1.000
    O78     O    0.31380   0.77141   0.23655   1.000
    O79     O    0.16591   0.28872   0.21676   1.000
    O80     O    0.99306   0.80678   0.24769   1.000
    O81     O    0.00710   0.30676   0.25230   1.000
    O82     O    0.57351   0.22143   0.23727   1.000
    O83     O    0.68620   0.27138   0.26371   1.000
    O84     O    0.42639   0.72163   0.26327   1.000
    O85     O    0.27151   0.70509   0.29491   1.000
    O86     O    0.83424   0.78895   0.28328   1.000
    O87     O    0.95424   0.74003   0.30519   1.000
    O88     O    0.82412   0.32240   0.28776   1.000
    O89     O    0.95911   0.36434   0.30489   1.000
    O90     O    0.63406   0.34216   0.32389   1.000
    O91     O    0.09493   0.68926   0.32813   1.000
    O92     O    0.91119   0.66706   0.36357   1.000
    O93     O    0.46709   0.38860   0.34462   1.000
    O94     O    0.33921   0.47557   0.38730   1.000
    O95     O    0.57652   0.38664   0.39275   1.000
    O96     O    0.73619   0.63438   0.39225   1.000
    O97     O    0.87194   0.60560   0.42402   1.000
    O98     O    0.65160   0.42607   0.49410   1.000
    O99     O    0.34818   0.57446   0.50586   1.000
    O100    O    0.12782   0.39446   0.57599   1.000
    O101    O    0.66061   0.52449   0.61267   1.000
    O102    O    0.42332   0.61403   0.60717   1.000
    O103    O    0.26375   0.36584   0.60774   1.000
    O104    O    0.08875   0.33314   0.63652   1.000
    O105    O    0.53279   0.61160   0.65531   1.000
    O106    O    0.36599   0.65820   0.67611   1.000
    O107    O    0.90504   0.31099   0.67203   1.000
    O108    O    0.04575   0.26026   0.69499   1.000
    O109    O    0.04095   0.63565   0.69531   1.000
    O110    O    0.72847   0.29516   0.70528   1.000
    O111    O    0.17597   0.67782   0.71232   1.000
    O112    O    0.31385   0.72874   0.73652   1.000
    O113    O    0.16577   0.21138   0.71692   1.000
    O114    O    0.99296   0.69330   0.74786   1.000
    O115    O    0.00695   0.19353   0.75252   1.000
    O116    O    0.57362   0.27865   0.73695   1.000
    O117    O    0.68620   0.22884   0.76365   1.000
    O118    O    0.42643   0.77843   0.76326   1.000
    O119    O    0.27154   0.79499   0.79491   1.000
    O120    O    0.83420   0.71115   0.78356   1.000
    O121    O    0.95428   0.76013   0.80529   1.000
    O122    O    0.82399   0.17796   0.78792   1.000
    O123    O    0.95887   0.13596   0.80513   1.000
    O124    O    0.63399   0.15821   0.82398   1.000
    O125    O    0.09499   0.81089   0.82814   1.000
    O126    O    0.91138   0.83318   0.86360   1.000
    O127    O    0.46728   0.11156   0.84464   1.000
    O128    O    0.33940   0.02443   0.88727   1.000
    O129    O    0.57628   0.11400   0.89293   1.000
    O130    O    0.73644   0.86596   0.89233   1.000
    O131    O    0.87236   0.89457   0.92406   1.000
    O132    O    0.89573   0.06259   0.05334   1.000
    O133    O    0.19282   0.01510   0.99461   1.000
    O134    O    0.53145   0.09125   0.08516   1.000
    O135    O    0.44864   0.47361   0.43543   1.000
    O136    O    0.10410   0.56263   0.44674   1.000
    O137    O    0.80706   0.51509   0.50541   1.000
    O138    O    0.46835   0.59141   0.41497   1.000
    O139    O    0.55106   0.97325   0.06463   1.000
    O140    O    0.80725   0.98494   0.00549   1.000
    O141    O    0.10434   0.93745   0.94676   1.000
    O142    O    0.46843   0.90884   0.91503   1.000
    O143    O    0.55113   0.52692   0.56453   1.000
    O144    O    0.19267   0.48496   0.49459   1.000
    O145    O    0.89563   0.43742   0.55326   1.000
    O146    O    0.53155   0.40879   0.58502   1.000
    O147    O    0.44840   0.02687   0.93556   1.000
loop_
    _geom_bond_atom_site_label_1
    _geom_bond_atom_site_label_2
    _geom_bond_distance
    _geom_bond_site_symmetry_2
    _ccdc_geom_bond_type
    C48    O64       0.64404      .   S
    C22    O64       0.64404      .   S
    C0     O65       1.21059  1_545   S
    C54    O65       1.21059      .   S
    C0     O66       1.16170  1_554   S
    C63    O66       1.16170      .   S
    C55    O67       0.63911      .   S
    C28    O67       0.63911      .   S
    C55    O68       1.16136      .   S
    C2     O68       1.16136  1_556   S
    C22    O69       0.62903      .   S
    C49    O69       0.62903      .   S
    C22    O70       0.75598      .   S
    C17    O70       0.75598      .   S
    C28    O71       0.63386      .   S
    C54    O71       0.63386      .   S
    C28    O72       0.75039      .   S
    C23    O72       0.75039      .   S
    C17    O73       0.67822  1_455   S
    C44    O73       0.67822      .   S
    C17    O74       0.69727      .   S
    C18    O74       0.69727      .   S
    C9     O75       0.54396      .   S
    C27    O75       0.54396      .   S
    C44    O76       0.67219      .   S
    C19    O76       0.67219      .   S
    C23    O77       0.69840      .   S
    C27    O77       0.69840      .   S
    C23    O78       0.70021      .   S
    C26    O78       0.70021      .   S
    C4     O79       0.54242      .   S
    C18    O79       0.54242      .   S
    C27    O80       0.69465  1_455   S
    C25    O80       0.69465      .   S
    C18    O81       0.69462      .   S
    C20    O81       0.69462  1_655   S
    C19    O82       0.54399      .   S
    C5     O82       0.54399      .   S
    C19    O83       0.70028      .   S
    C16    O83       0.70028      .   S
    C8     O84       0.54399      .   S
    C26    O84       0.54399      .   S
    C26    O85       0.67219      .   S
    C45    O85       0.67219      .   S
    C25    O86       0.54243      .   S
    C7     O86       0.54243      .   S
    C25    O87       0.69729      .   S
    C24    O87       0.69729      .   S
    C20    O88       0.69873      .   S
    C16    O88       0.69873      .   S
    C20    O89       0.54396      .   S
    C6     O89       0.54396      .   S
    C16    O90       0.75048      .   S
    C21    O90       0.75048      .   S
    C45    O91       0.67726      .   S
    C24    O91       0.67726  1_655   S
    C24    O92       0.75598      .   S
    C29    O92       0.75598      .   S
    C50    O93       0.63373      .   S
    C21    O93       0.63373      .   S
    C50    O94       1.21201      .   S
    C1     O94       1.21201      .   S
    C21    O95       0.63911      .   S
    C51    O95       0.63911      .   S
    C53    O96       0.62897      .   S
    C29    O96       0.62897      .   S
    C29    O97       0.64404      .   S
    C52    O97       0.64404      .   S
    C51    O98       1.16113      .   S
    C3     O98       1.16113      .   S
    C1     O99       1.16137      .   S
    C59    O99       1.16137      .   S
    C60    O100      0.64411      .   S
    C43    O100      0.64411      .   S
    C3     O101      1.21079      .   S
    C58    O101      1.21079      .   S
    C59    O102      0.63908      .   S
    C35    O102      0.63908      .   S
    C43    O103      0.62907      .   S
    C61    O103      0.62907      .   S
    C43    O104      0.75605      .   S
    C38    O104      0.75605      .   S
    C35    O105      0.63384      .   S
    C58    O105      0.63384      .   S
    C35    O106      0.75037      .   S
    C30    O106      0.75037      .   S
    C38    O107      0.67730  1_455   S
    C47    O107      0.67730      .   S
    C38    O108      0.69727      .   S
    C39    O108      0.69727      .   S
    C12    O109      0.54398      .   S
    C34    O109      0.54398      .   S
    C47    O110      0.67218      .   S
    C40    O110      0.67218      .   S
    C30    O111      0.69921      .   S
    C34    O111      0.69921      .   S
    C30    O112      0.70021      .   S
    C33    O112      0.70021      .   S
    C13    O113      0.54243      .   S
    C39    O113      0.54243      .   S
    C34    O114      0.69470  1_455   S
    C32    O114      0.69470      .   S
    C39    O115      0.69469      .   S
    C41    O115      0.69469  1_655   S
    C40    O116      0.54400      .   S
    C14    O116      0.54400      .   S
    C40    O117      0.70026      .   S
    C37    O117      0.70026      .   S
    C11    O118      0.54399      .   S
    C33    O118      0.54399      .   S
    C33    O119      0.67221      .   S
    C46    O119      0.67221      .   S
    C32    O120      0.54245      .   S
    C10    O120      0.54245      .   S
    C32    O121      0.69728      .   S
    C31    O121      0.69728      .   S
    C41    O122      0.69838      .   S
    C37    O122      0.69838      .   S
    C41    O123      0.54398      .   S
    C15    O123      0.54398      .   S
    C37    O124      0.75047      .   S
    C42    O124      0.75047      .   S
    C46    O125      0.67697      .   S
    C31    O125      0.67697  1_655   S
    C31    O126      0.75593      .   S
    C36    O126      0.75593      .   S
    C62    O127      0.63378      .   S
    C42    O127      0.63378      .   S
    C62    O128      1.21165      .   S
    C2     O128      1.21165  1_565   S
    C42    O129      0.63901      .   S
    C63    O129      0.63901      .   S
    C57    O130      0.62901      .   S
    C36    O130      0.62901      .   S
    C36    O131      0.64409      .   S
    C56    O131      0.64409      .   S
    C48    O132      1.23120  1_455   S
    C0     O132      1.23120      .   S
    C48    O133      1.22306  1_554   S
    C2     O133      1.22306  1_565   S
    C49    O134      1.21265      .   S
    C0     O134      1.21265      .   S
    C51    O135      1.31722      .   S
    C1     O135      1.31722      .   S
    C52    O136      1.22989  1_655   S
    C1     O136      1.22989      .   S
    C52    O137      1.22296      .   S
    C3     O137      1.22296      .   S
    C53    O138      1.21375      .   S
    C1     O138      1.21375      .   S
    C55    O139      1.31948      .   S
    C0     O139      1.31948  1_545   S
    C56    O140      1.22376  1_556   S
    C0     O140      1.22376  1_545   S
    C56    O141      1.22802  1_655   S
    C2     O141      1.22802      .   S
    C57    O142      1.21313      .   S
    C2     O142      1.21313      .   S
    C59    O143      1.32097      .   S
    C3     O143      1.32097      .   S
    C60    O144      1.22370      .   S
    C1     O144      1.22370      .   S
    C60    O145      1.22933  1_455   S
    C3     O145      1.22933      .   S
    C61    O146      1.21293      .   S
    C3     O146      1.21293      .   S
    C63    O147      1.32056      .   S
    C2     O147      1.32056  1_565   S
