# CIF file generated by openbabel 2.4.90, see http://openbabel.sf.net
data_I
_chemical_name_common ''
_cell_length_a 13.248
_cell_length_b 14.544
_cell_length_c 18.124
_cell_angle_alpha 89.98
_cell_angle_beta 89.858
_cell_angle_gamma 89.997
_space_group_name_H-M_alt 'P 1'
_space_group_name_Hall 'P 1'
loop_
    _symmetry_equiv_pos_as_xyz
    x,y,z
loop_
    _atom_site_label
    _atom_site_type_symbol
    _atom_site_fract_x
    _atom_site_fract_y
    _atom_site_fract_z
    _atom_site_occupancy
    Cd0     Cd   0.63322   0.55093   0.66804   1.000
    Cd1     Cd   0.63330   0.05069   0.83246   1.000
    Cd2     Cd   0.86710   0.05085   0.16738   1.000
    Cd3     Cd   0.36667   0.94934   0.16754   1.000
    Cd4     Cd   0.13287   0.94919   0.83262   1.000
    Cd5     Cd   0.13354   0.44910   0.66750   1.000
    Cd6     Cd   0.36676   0.44910   0.33196   1.000
    Cd7     Cd   0.86643   0.55093   0.33250   1.000
