# CIF file generated by openbabel 2.4.90, see http://openbabel.sf.net
data_I
_chemical_name_common ''
_cell_length_a 13.248
_cell_length_b 14.544
_cell_length_c 18.124
_cell_angle_alpha 89.98
_cell_angle_beta 89.858
_cell_angle_gamma 89.997
_space_group_name_H-M_alt 'P 1'
_space_group_name_Hall 'P 1'
loop_
    _symmetry_equiv_pos_as_xyz
    x,y,z
loop_
    _atom_site_label
    _atom_site_type_symbol
    _atom_site_fract_x
    _atom_site_fract_y
    _atom_site_fract_z
    _atom_site_occupancy
    N0      N    0.24988   0.08276   0.00042   1.000
    N1      N    0.75009   0.91727   0.00035   1.000
    N2      N    0.43060   0.26869   0.72460   1.000
    N3      N    0.74977   0.41741   0.50025   1.000
    N4      N    0.56937   0.73135   0.27540   1.000
    N5      N    0.06934   0.26878   0.27587   1.000
    N6      N    0.06931   0.76888   0.22434   1.000
    N7      N    0.93066   0.23115   0.77566   1.000
    N8      N    0.56963   0.23100   0.22397   1.000
    N9      N    0.25019   0.58263   0.49974   1.000
    N10     N    0.93063   0.73125   0.72414   1.000
    N11     N    0.43034   0.76903   0.77603   1.000
    Zr12    Zr   0.13287   0.94919   0.83262   1.000
    O13     O    0.07996   0.03719   0.81083   1.000
    O14     O    0.06800   0.88250   0.79836   1.000
    O15     O    0.17048   0.99180   0.88838   1.000
    Zr16    Zr   0.63322   0.55093   0.66804   1.000
    O17     O    0.56807   0.61766   0.70208   1.000
    O18     O    0.58014   0.46284   0.68972   1.000
    O19     O    0.67065   0.50832   0.61226   1.000
    Zr20    Zr   0.13354   0.44910   0.66750   1.000
    O21     O    0.06845   0.38239   0.70161   1.000
    O22     O    0.08037   0.53717   0.68919   1.000
    O23     O    0.17102   0.49170   0.61174   1.000
    Zr24    Zr   0.86643   0.55093   0.33250   1.000
    O25     O    0.91960   0.46286   0.31081   1.000
    O26     O    0.93152   0.61764   0.29839   1.000
    O27     O    0.82895   0.50833   0.38826   1.000
    Zr28    Zr   0.36676   0.44910   0.33196   1.000
    O29     O    0.41984   0.53719   0.31028   1.000
    O30     O    0.32932   0.49171   0.38774   1.000
    O31     O    0.43190   0.38237   0.29792   1.000
    Zr32    Zr   0.86710   0.05085   0.16738   1.000
    O33     O    0.93197   0.11754   0.20165   1.000
    O34     O    0.92002   0.96285   0.18917   1.000
    O35     O    0.82949   0.00823   0.11181   1.000
    Zr36    Zr   0.63330   0.05069   0.83246   1.000
    O37     O    0.58011   0.96277   0.81076   1.000
    O38     O    0.67082   0.00811   0.88824   1.000
    O39     O    0.56825   0.11741   0.79847   1.000
    Zr40    Zr   0.36667   0.94934   0.16754   1.000
    O41     O    0.41986   0.03726   0.18924   1.000
    O42     O    0.43173   0.88262   0.20154   1.000
    O43     O    0.32916   0.99192   0.11195   1.000
    O44     O    0.22415   0.39329   0.68386   1.000
    O45     O    0.27602   0.39335   0.31590   1.000
    O46     O    0.27597   0.89353   0.18383   1.000
    O47     O    0.22365   0.89357   0.81642   1.000
    O48     O    0.72395   0.60668   0.68411   1.000
    O49     O    0.72400   0.10650   0.81617   1.000
    O50     O    0.77582   0.60674   0.31614   1.000
    O51     O    0.77632   0.10646   0.18359   1.000
loop_
    _geom_bond_atom_site_label_1
    _geom_bond_atom_site_label_2
    _geom_bond_distance
    _geom_bond_site_symmetry_2
    _ccdc_geom_bond_type
    Zr12   O13       1.51211  1_565   S
    N7     O13       3.50438  1_655   S
    Zr12   O14       1.43820      .   S
    N10    O14       3.15825  1_655   S
    Zr12   O15       1.28709      .   S
    N0     O15       2.64421  1_544   S
    Zr16   O17       1.43710      .   S
    N11    O17       3.15625      .   S
    Zr16   O18       1.51283      .   S
    N2     O18       3.50580      .   S
    Zr16   O19       1.28448      .   S
    N3     O19       2.63801      .   S
    Zr20   O21       1.43667      .   S
    N7     O21       3.15562  1_655   S
    Zr20   O22       1.51339      .   S
    N10    O22       3.50691  1_655   S
    Zr20   O23       1.28411      .   S
    N9     O23       2.63759      .   S
    Zr24   O25       1.51338      .   S
    N5     O25       3.50691  1_455   S
    Zr24   O26       1.43667      .   S
    N6     O26       3.15561  1_455   S
    Zr24   O27       1.28412      .   S
    N3     O27       2.63760      .   S
    Zr28   O29       1.51283      .   S
    N4     O29       3.50580      .   S
    Zr28   O30       1.28448      .   S
    N9     O30       2.63801      .   S
    Zr28   O31       1.43710      .   S
    N8     O31       3.15624      .   S
    Zr32   O33       1.43820      .   S
    N5     O33       3.15825  1_455   S
    Zr32   O34       1.51211  1_545   S
    N6     O34       3.50438  1_455   S
    Zr32   O35       1.28437      .   S
    N1     O35       2.63627  1_565   S
    Zr36   O37       1.51252  1_545   S
    N11    O37       3.50450      .   S
    Zr36   O38       1.28633      .   S
    N1     O38       2.64294  1_564   S
    Zr36   O39       1.43745      .   S
    N2     O39       3.15712      .   S
    Zr40   O41       1.51251  1_565   S
    N8     O41       3.50450      .   S
    Zr40   O42       1.43745      .   S
    N4     O42       3.15712      .   S
    Zr40   O43       1.28362      .   S
    N0     O43       2.63498  1_545   S
    Zr20   O44       1.47959      .   S
    N2     O44       3.36432      .   S
    Zr28   O45       1.47957      .   S
    N5     O45       3.36417      .   S
    N6     O46       3.36322      .   S
    Zr40   O46       1.47924      .   S
    Zr12   O47       1.47822      .   S
    N11    O47       3.36225      .   S
    Zr16   O48       1.47957      .   S
    N10    O48       3.36417      .   S
    N7     O49       3.36322      .   S
    Zr36   O49       1.47924      .   S
    N4     O50       3.36433      .   S
    Zr24   O50       1.47959      .   S
    Zr32   O51       1.47822      .   S
    N8     O51       3.36226      .   S
