# CIF file generated by openbabel 2.4.90, see http://openbabel.sf.net
data_I
_chemical_name_common ''
_cell_length_a 13.248
_cell_length_b 14.544
_cell_length_c 18.124
_cell_angle_alpha 89.98
_cell_angle_beta 89.858
_cell_angle_gamma 89.997
_space_group_name_H-M_alt 'P 1'
_space_group_name_Hall 'P 1'
loop_
    _symmetry_equiv_pos_as_xyz
    x,y,z
loop_
    _atom_site_label
    _atom_site_type_symbol
    _atom_site_fract_x
    _atom_site_fract_y
    _atom_site_fract_z
    _atom_site_occupancy
    N0      N    0.24988   0.08276   0.00042   1.000
    N1      N    0.75009   0.91727   0.00035   1.000
    N2      N    0.43060   0.26869   0.72460   1.000
    N3      N    0.74977   0.41741   0.50025   1.000
    N4      N    0.56937   0.73135   0.27540   1.000
    N5      N    0.06934   0.26878   0.27587   1.000
    N6      N    0.06931   0.76888   0.22434   1.000
    N7      N    0.93066   0.23115   0.77566   1.000
    N8      N    0.56963   0.23100   0.22397   1.000
    N9      N    0.25019   0.58263   0.49974   1.000
    N10     N    0.93063   0.73125   0.72414   1.000
    N11     N    0.43034   0.76903   0.77603   1.000
    Zr12    Zr   0.13287   0.94919   0.83262   1.000
    O13     O    0.22123   0.88805   0.82253   1.000
    O14     O    0.22607   0.89910   0.81030   1.000
    O15     O    0.07996   0.03719   0.81083   1.000
    O16     O    0.06800   0.88250   0.79836   1.000
    O17     O    0.17048   0.99180   0.88838   1.000
    Zr18    Zr   0.63322   0.55093   0.66804   1.000
    O19     O    0.56807   0.61766   0.70208   1.000
    O20     O    0.58014   0.46284   0.68972   1.000
    O21     O    0.72175   0.61208   0.67788   1.000
    O22     O    0.72614   0.60128   0.69033   1.000
    O23     O    0.67065   0.50832   0.61226   1.000
    Zr24    Zr   0.13354   0.44910   0.66750   1.000
    O25     O    0.06845   0.38239   0.70161   1.000
    O26     O    0.08037   0.53717   0.68919   1.000
    O27     O    0.22214   0.38793   0.67759   1.000
    O28     O    0.17102   0.49170   0.61174   1.000
    O29     O    0.22617   0.39865   0.69013   1.000
    Zr30    Zr   0.86643   0.55093   0.33250   1.000
    O31     O    0.91960   0.46286   0.31081   1.000
    O32     O    0.93152   0.61764   0.29839   1.000
    O33     O    0.77784   0.61210   0.32242   1.000
    O34     O    0.77380   0.60138   0.30987   1.000
    O35     O    0.82895   0.50833   0.38826   1.000
    Zr36    Zr   0.36676   0.44910   0.33196   1.000
    O37     O    0.27822   0.38796   0.32212   1.000
    O38     O    0.27383   0.39875   0.30967   1.000
    O39     O    0.41984   0.53719   0.31028   1.000
    O40     O    0.32932   0.49171   0.38774   1.000
    O41     O    0.43190   0.38237   0.29792   1.000
    Zr42    Zr   0.86710   0.05085   0.16738   1.000
    O43     O    0.93197   0.11754   0.20165   1.000
    O44     O    0.92002   0.96285   0.18917   1.000
    O45     O    0.82949   0.00823   0.11181   1.000
    O46     O    0.77874   0.11198   0.17747   1.000
    O47     O    0.77390   0.10093   0.18970   1.000
    Zr48    Zr   0.63330   0.05069   0.83246   1.000
    O49     O    0.58011   0.96277   0.81076   1.000
    O50     O    0.72621   0.10110   0.80994   1.000
    O51     O    0.72179   0.11190   0.82240   1.000
    O52     O    0.67082   0.00811   0.88824   1.000
    O53     O    0.56825   0.11741   0.79847   1.000
    Zr54    Zr   0.36667   0.94934   0.16754   1.000
    O55     O    0.41986   0.03726   0.18924   1.000
    O56     O    0.27818   0.88814   0.17761   1.000
    O57     O    0.27376   0.89893   0.19006   1.000
    O58     O    0.43173   0.88262   0.20154   1.000
    O59     O    0.32916   0.99192   0.11195   1.000
loop_
    _geom_bond_atom_site_label_1
    _geom_bond_atom_site_label_2
    _geom_bond_distance
    _geom_bond_site_symmetry_2
    _ccdc_geom_bond_type
    Zr12   O13       1.48098      .   S
    N11    O13       3.37189      .   S
    Zr12   O14       1.48877      .   S
    N11    O14       3.35846      .   S
    Zr12   O15       1.51211  1_565   S
    N7     O15       3.50438  1_655   S
    Zr12   O16       1.43820      .   S
    N10    O16       3.15825  1_655   S
    Zr12   O17       1.28709      .   S
    N0     O17       2.64421  1_544   S
    Zr18   O19       1.43710      .   S
    N11    O19       3.15625      .   S
    Zr18   O20       1.51283      .   S
    N2     O20       3.50580      .   S
    Zr18   O21       1.48316      .   S
    N10    O21       3.37308      .   S
    Zr18   O22       1.48928      .   S
    N10    O22       3.36111      .   S
    Zr18   O23       1.28448      .   S
    N3     O23       2.63801      .   S
    Zr24   O25       1.43667      .   S
    N7     O25       3.15562  1_655   S
    Zr24   O26       1.51339      .   S
    N10    O26       3.50691  1_655   S
    Zr24   O27       1.48433      .   S
    N2     O27       3.37215      .   S
    Zr24   O28       1.28411      .   S
    N9     O28       2.63759      .   S
    Zr24   O29       1.48815      .   S
    N2     O29       3.36234      .   S
    Zr30   O31       1.51338      .   S
    N5     O31       3.50691  1_455   S
    Zr30   O32       1.43667      .   S
    N6     O32       3.15561  1_455   S
    Zr30   O33       1.48434      .   S
    N4     O33       3.37216      .   S
    Zr30   O34       1.48815      .   S
    N4     O34       3.36235      .   S
    Zr30   O35       1.28412      .   S
    N3     O35       2.63760      .   S
    Zr36   O37       1.48316      .   S
    N5     O37       3.37309      .   S
    Zr36   O38       1.48929      .   S
    N5     O38       3.36111      .   S
    Zr36   O39       1.51283      .   S
    N4     O39       3.50580      .   S
    Zr36   O40       1.28448      .   S
    N9     O40       2.63801      .   S
    Zr36   O41       1.43710      .   S
    N8     O41       3.15624      .   S
    Zr42   O43       1.43820      .   S
    N5     O43       3.15825  1_455   S
    Zr42   O44       1.51211  1_545   S
    N6     O44       3.50438  1_455   S
    Zr42   O45       1.28437      .   S
    N1     O45       2.63627  1_565   S
    Zr42   O46       1.48098      .   S
    N8     O46       3.37190      .   S
    Zr42   O47       1.48878      .   S
    N8     O47       3.35847      .   S
    Zr48   O49       1.51252  1_545   S
    N11    O49       3.50450      .   S
    Zr48   O50       1.48884      .   S
    N7     O50       3.36027      .   S
    Zr48   O51       1.48295      .   S
    N7     O51       3.37202      .   S
    Zr48   O52       1.28633      .   S
    N1     O52       2.64294  1_564   S
    Zr48   O53       1.43745      .   S
    N2     O53       3.15712      .   S
    Zr54   O55       1.51251  1_565   S
    N8     O55       3.50450      .   S
    Zr54   O56       1.48295      .   S
    N6     O56       3.37202      .   S
    Zr54   O57       1.48884      .   S
    N6     O57       3.36027      .   S
    Zr54   O58       1.43745      .   S
    N4     O58       3.15712      .   S
    Zr54   O59       1.28362      .   S
    N0     O59       2.63498  1_545   S
