# CIF file generated by openbabel 2.4.90, see http://openbabel.sf.net
data_I
_chemical_name_common ''
_cell_length_a 13.248
_cell_length_b 14.544
_cell_length_c 18.124
_cell_angle_alpha 89.98
_cell_angle_beta 89.858
_cell_angle_gamma 89.997
_space_group_name_H-M_alt 'P 1'
_space_group_name_Hall 'P 1'
loop_
    _symmetry_equiv_pos_as_xyz
    x,y,z
loop_
    _atom_site_label
    _atom_site_type_symbol
    _atom_site_fract_x
    _atom_site_fract_y
    _atom_site_fract_z
    _atom_site_occupancy
    Zr0     Zr   0.86643   0.55093   0.33250   1.000
    Zr1     Zr   0.63322   0.55093   0.66804   1.000
    Zr2     Zr   0.63330   0.05069   0.83246   1.000
    Zr3     Zr   0.86710   0.05085   0.16738   1.000
    Zr4     Zr   0.36667   0.94934   0.16754   1.000
    Zr5     Zr   0.13287   0.94919   0.83262   1.000
    Zr6     Zr   0.13354   0.44910   0.66750   1.000
    Zr7     Zr   0.36676   0.44910   0.33196   1.000
    N8      N    0.24988   0.08276   0.00042   1.000
    O9      O    0.29164   0.03449   0.05635   1.000
    O10     O    0.20808   0.03442   0.94415   1.000
    N11     N    0.75009   0.91727   0.00035   1.000
    O12     O    0.79189   0.96562   0.05624   1.000
    O13     O    0.70833   0.96554   0.94403   1.000
    N14     N    0.43060   0.26869   0.72460   1.000
    O15     O    0.31073   0.32676   0.68767   1.000
    O16     O    0.31880   0.34821   0.71276   1.000
    O17     O    0.52705   0.37475   0.71141   1.000
    O18     O    0.50319   0.18414   0.76447   1.000
    N19     N    0.74977   0.41741   0.50025   1.000
    O20     O    0.70809   0.46571   0.55648   1.000
    O21     O    0.79146   0.46573   0.44402   1.000
    N22     N    0.56937   0.73135   0.27540   1.000
    O23     O    0.47292   0.62528   0.28860   1.000
    O24     O    0.68924   0.67327   0.31233   1.000
    O25     O    0.68117   0.65182   0.28724   1.000
    O26     O    0.49678   0.81589   0.23553   1.000
    N27     N    0.06934   0.26878   0.27587   1.000
    O28     O    0.18968   0.32681   0.31228   1.000
    O29     O    0.18090   0.34839   0.28738   1.000
    O30     O    0.97277   0.37479   0.28912   1.000
    O31     O    0.99685   0.18423   0.23591   1.000
    N32     N    0.06931   0.76888   0.22434   1.000
    O33     O    0.18085   0.84852   0.21258   1.000
    O34     O    0.97293   0.87485   0.21096   1.000
    O35     O    0.18968   0.82693   0.18767   1.000
    O36     O    0.99660   0.68435   0.26428   1.000
    N37     N    0.93066   0.23115   0.77566   1.000
    O38     O    0.00337   0.31568   0.73572   1.000
    O39     O    0.81029   0.17310   0.81233   1.000
    O40     O    0.81912   0.15151   0.78742   1.000
    O41     O    0.02704   0.12518   0.78904   1.000
    N42     N    0.56963   0.23100   0.22397   1.000
    O43     O    0.69038   0.17312   0.18756   1.000
    O44     O    0.68070   0.15102   0.21202   1.000
    O45     O    0.49704   0.31563   0.26388   1.000
    O46     O    0.47305   0.12517   0.21093   1.000
    N47     N    0.25019   0.58263   0.49974   1.000
    O48     O    0.20851   0.53430   0.55598   1.000
    O49     O    0.29188   0.53432   0.44352   1.000
    N50     N    0.93063   0.73125   0.72414   1.000
    O51     O    0.02720   0.62524   0.71088   1.000
    O52     O    0.00312   0.81580   0.76409   1.000
    O53     O    0.81029   0.67323   0.68772   1.000
    O54     O    0.81907   0.65164   0.71262   1.000
    N55     N    0.43034   0.76903   0.77603   1.000
    O56     O    0.52692   0.87486   0.78907   1.000
    O57     O    0.30959   0.82691   0.81244   1.000
    O58     O    0.31927   0.84901   0.78798   1.000
    O59     O    0.50293   0.68440   0.73612   1.000
loop_
    _geom_bond_atom_site_label_1
    _geom_bond_atom_site_label_2
    _geom_bond_distance
    _geom_bond_site_symmetry_2
    _ccdc_geom_bond_type
    N8     O9        1.35237      .   S
    Zr4    O9        2.56724  1_565   S
    N8     O10       1.35809  1_554   S
    Zr5    O10       2.57417  1_565   S
    N11    O12       1.35291      .   S
    Zr3    O12       2.56875  1_545   S
    N11    O13       1.35756  1_554   S
    Zr2    O13       2.57266  1_545   S
    N14    O15       1.92047      .   S
    Zr6    O15       2.96867      .   S
    N14    O16       1.89177      .   S
    Zr6    O16       2.97629      .   S
    N14    O17       2.01692      .   S
    Zr1    O17       3.02566      .   S
    N14    O18       1.72096      .   S
    Zr2    O18       2.87489      .   S
    N19    O20       1.35451      .   S
    Zr1    O20       2.56896      .   S
    N19    O21       1.35446      .   S
    Zr0    O21       2.56824      .   S
    N22    O23       2.01692      .   S
    Zr7    O23       3.02566      .   S
    N22    O24       1.92048      .   S
    Zr0    O24       2.96867      .   S
    N22    O25       1.89177      .   S
    Zr0    O25       2.97630      .   S
    N22    O26       1.72096      .   S
    Zr4    O26       2.87489      .   S
    N27    O28       1.92234      .   S
    Zr7    O28       2.96633      .   S
    N27    O29       1.88957      .   S
    Zr7    O29       2.97858      .   S
    N27    O30       2.01743  1_455   S
    Zr0    O30       3.02677      .   S
    N27    O31       1.72135  1_455   S
    Zr3    O31       2.87639      .   S
    N32    O33       1.88919      .   S
    Zr4    O33       2.97768      .   S
    N32    O34       2.01622  1_455   S
    Zr3    O34       3.02421  1_545   S
    N32    O35       1.92150      .   S
    Zr4    O35       2.96589      .   S
    N32    O36       1.72022  1_455   S
    Zr0    O36       2.87333      .   S
    N37    O38       1.72022  1_655   S
    Zr6    O38       2.87334      .   S
    N37    O39       1.92150      .   S
    Zr2    O39       2.96589      .   S
    N37    O40       1.88919      .   S
    Zr2    O40       2.97768      .   S
    N37    O41       2.01622  1_655   S
    Zr5    O41       3.02421  1_565   S
    N42    O43       1.92301      .   S
    Zr3    O43       2.96197      .   S
    N42    O44       1.88771      .   S
    Zr3    O44       2.97756      .   S
    N42    O45       1.72047      .   S
    Zr7    O45       2.87420      .   S
    N42    O46       2.01603      .   S
    Zr4    O46       3.02503  1_565   S
    N47    O48       1.35445      .   S
    Zr6    O48       2.56823      .   S
    N47    O49       1.35451      .   S
    Zr7    O49       2.56896      .   S
    N50    O51       2.01743  1_655   S
    Zr6    O51       3.02677      .   S
    N50    O52       1.72135  1_655   S
    Zr5    O52       2.87639      .   S
    N50    O53       1.92233      .   S
    Zr1    O53       2.96633      .   S
    N50    O54       1.88957      .   S
    Zr1    O54       2.97857      .   S
    N55    O56       2.01603      .   S
    Zr2    O56       3.02503  1_545   S
    N55    O57       1.92300      .   S
    Zr5    O57       2.96196      .   S
    N55    O58       1.88771      .   S
    Zr5    O58       2.97755      .   S
    N55    O59       1.72048      .   S
    Zr1    O59       2.87421      .   S
