# CIF file generated by openbabel 2.4.90, see http://openbabel.sf.net
data_I
_chemical_name_common ''
_cell_length_a 12.884
_cell_length_b 13.185
_cell_length_c 16.252
_cell_angle_alpha 113.652
_cell_angle_beta 112.964
_cell_angle_gamma 90.493
_space_group_name_H-M_alt 'P 1'
_space_group_name_Hall 'P 1'
loop_
    _symmetry_equiv_pos_as_xyz
    x,y,z
loop_
    _atom_site_label
    _atom_site_type_symbol
    _atom_site_fract_x
    _atom_site_fract_y
    _atom_site_fract_z
    _atom_site_occupancy
    H0      H    0.80673   0.11568   0.56393   1.000
    H1      H    0.64310   0.81847   0.23344   1.000
    H2      H    0.50795   0.78789   0.23189   1.000
    H3      H    0.91244   0.70246   0.84018   1.000
    H4      H    0.75717   0.44795   0.56415   1.000
    H5      H    0.59189   0.41535   0.23365   1.000
    H6      H    0.72530   0.44502   0.23204   1.000
    H7      H    0.48296   0.80846   0.57151   1.000
    H8      H    0.37758   0.62442   0.22130   1.000
    H9      H    0.39885   0.49008   0.21839   1.000
    H10     H    0.13514   0.90990   0.84041   1.000
    H11     H    0.08823   0.76307   0.57184   1.000
    H12     H    0.84690   0.59785   0.22152   1.000
    H13     H    0.82295   0.72915   0.21853   1.000
    H14     H    0.07414   0.86328   0.16159   1.000
    H15     H    0.19324   0.88424   0.43597   1.000
    H16     H    0.35685   0.18149   0.76644   1.000
    H17     H    0.49199   0.21209   0.76799   1.000
    H18     H    0.08753   0.29744   0.15967   1.000
    H19     H    0.24283   0.55205   0.43575   1.000
    H20     H    0.40811   0.58455   0.76621   1.000
    H21     H    0.27471   0.55488   0.76782   1.000
    H22     H    0.29676   0.07136   0.16165   1.000
    H23     H    0.51698   0.19149   0.42834   1.000
    H24     H    0.62237   0.37553   0.77855   1.000
    H25     H    0.60115   0.50989   0.78147   1.000
    H26     H    0.86473   0.09006   0.15948   1.000
    H27     H    0.91172   0.23688   0.42803   1.000
    H28     H    0.15311   0.40210   0.77834   1.000
    H29     H    0.17704   0.27080   0.78133   1.000
    H30     H    0.09209   0.17351   0.99852   1.000
    H31     H    0.75181   0.34680   0.00032   1.000
    H32     H    0.90782   0.82638   0.00133   1.000
    H33     H    0.24817   0.65319   0.99960   1.000
    H34     H    0.82610   0.09456   0.99832   1.000
    H35     H    0.65618   0.75644   0.00048   1.000
    H36     H    0.17377   0.90547   0.00161   1.000
    H37     H    0.34374   0.24350   0.99937   1.000
    C38     C    0.82828   0.23954   0.90919   1.000
    C39     C    0.92474   0.19087   0.90906   1.000
    C40     C    0.62859   0.91010   0.36153   1.000
    C41     C    0.73428   0.05063   0.50230   1.000
    C42     C    0.72650   0.21883   0.81474   1.000
    C43     C    0.08057   0.66978   0.90972   1.000
    C44     C    0.98452   0.71891   0.91059   1.000
    C45     C    0.73383   0.45189   0.36170   1.000
    C46     C    0.76828   0.45170   0.50252   1.000
    C47     C    0.08700   0.59548   0.81475   1.000
    C48     C    0.67145   0.83234   0.90933   1.000
    C49     C    0.71965   0.92806   0.90909   1.000
    C50     C    0.42358   0.61489   0.35270   1.000
    C51     C    0.46779   0.73205   0.50508   1.000
    C52     C    0.59935   0.73068   0.81484   1.000
    C53     C    0.23747   0.07682   0.90977   1.000
    C54     C    0.18969   0.98142   0.91076   1.000
    C55     C    0.93130   0.73835   0.35283   1.000
    C56     C    0.03771   0.77320   0.50534   1.000
    C57     C    0.21397   0.08337   0.81465   1.000
    C58     C    0.17166   0.76042   0.09069   1.000
    C59     C    0.07519   0.80907   0.09080   1.000
    C60     C    0.37136   0.08986   0.63836   1.000
    C61     C    0.26569   0.94931   0.49759   1.000
    C62     C    0.27345   0.78116   0.18515   1.000
    C63     C    0.91941   0.33016   0.09016   1.000
    C64     C    0.01544   0.28101   0.08927   1.000
    C65     C    0.26617   0.54803   0.63816   1.000
    C66     C    0.23173   0.54828   0.49737   1.000
    C67     C    0.91300   0.40448   0.18514   1.000
    C68     C    0.32849   0.16764   0.09053   1.000
    C69     C    0.28026   0.07194   0.09080   1.000
    C70     C    0.57639   0.38507   0.64716   1.000
    C71     C    0.53217   0.26791   0.49477   1.000
    C72     C    0.40061   0.26930   0.18501   1.000
    C73     C    0.76244   0.92312   0.09009   1.000
    C74     C    0.81020   0.01855   0.08912   1.000
    C75     C    0.06869   0.26159   0.64703   1.000
    C76     C    0.96225   0.22674   0.49453   1.000
    C77     C    0.78594   0.91654   0.18520   1.000
    C78     C    0.01767   0.21173   0.99892   1.000
    C79     C    0.82648   0.30913   0.99993   1.000
    C80     C    0.98226   0.78820   0.00095   1.000
    C81     C    0.17348   0.69085   0.99998   1.000
    C82     C    0.78853   0.02071   0.99881   1.000
    C83     C    0.69288   0.83070   0.00003   1.000
    C84     C    0.21135   0.97929   0.00111   1.000
    C85     C    0.30703   0.16925   0.99985   1.000
    N86     N    0.63370   0.03360   0.50378   1.000
    N87     N    0.56355   0.94303   0.41253   1.000
    N88     N    0.73647   0.97722   0.41610   1.000
    N89     N    0.59460   0.82200   0.27173   1.000
    N90     N    0.87023   0.47051   0.50393   1.000
    N91     N    0.84956   0.47009   0.41265   1.000
    N92     N    0.68036   0.43896   0.41634   1.000
    N93     N    0.67833   0.45041   0.27193   1.000
    N94     N    0.48219   0.63309   0.50578   1.000
    N95     N    0.45345   0.55574   0.40741   1.000
    N96     N    0.43168   0.72659   0.41262   1.000
    N97     N    0.38638   0.57016   0.25378   1.000
    N98     N    0.02397   0.87284   0.50600   1.000
    N99     N    0.95541   0.85204   0.40754   1.000
    N100    N    0.98239   0.68642   0.41281   1.000
    N101    N    0.87098   0.68444   0.25379   1.000
    N102    N    0.36626   0.96635   0.49610   1.000
    N103    N    0.43640   0.05694   0.58734   1.000
    N104    N    0.26349   0.02272   0.58380   1.000
    N105    N    0.40535   0.17798   0.72814   1.000
    N106    N    0.12977   0.52946   0.49596   1.000
    N107    N    0.15045   0.52985   0.58723   1.000
    N108    N    0.31965   0.56099   0.58354   1.000
    N109    N    0.32167   0.54946   0.72792   1.000
    N110    N    0.51780   0.36687   0.49408   1.000
    N111    N    0.54654   0.44422   0.59245   1.000
    N112    N    0.56827   0.27337   0.58724   1.000
    N113    N    0.61360   0.42980   0.74608   1.000
    N114    N    0.97598   0.12710   0.49387   1.000
    N115    N    0.04456   0.14790   0.59233   1.000
    N116    N    0.01759   0.31353   0.58705   1.000
    N117    N    0.12903   0.31551   0.74607   1.000
    O118    O    0.64275   0.26640   0.81935   1.000
    O119    O    0.72909   0.15282   0.73176   1.000
    O120    O    0.17476   0.55166   0.81859   1.000
    O121    O    0.00150   0.57890   0.73211   1.000
    O122    O    0.55898   0.64569   0.81865   1.000
    O123    O    0.58213   0.73398   0.73217   1.000
    O124    O    0.25701   0.17204   0.81749   1.000
    O125    O    0.14890   0.99722   0.73242   1.000
    O126    O    0.35720   0.73358   0.18055   1.000
    O127    O    0.27085   0.84717   0.26813   1.000
    O128    O    0.82526   0.44831   0.18131   1.000
    O129    O    0.00000   0.42104   0.26777   1.000
    O130    O    0.44100   0.35426   0.18117   1.000
    O131    O    0.41785   0.26601   0.26769   1.000
    O132    O    0.74291   0.82785   0.18233   1.000
    O133    O    0.85100   0.00268   0.26743   1.000
loop_
    _geom_bond_atom_site_label_1
    _geom_bond_atom_site_label_2
    _geom_bond_distance
    _geom_bond_site_symmetry_2
    _ccdc_geom_bond_type
    C83    H35       1.08770      .   S
    C83    C73       1.39897      .   S
    C83    C48       1.39896  1_554   S
    H31    C79       1.08759  1_554   S
    C80    H32       1.08802      .   S
    C80    C59       1.39619  1_655   S
    C80    C44       1.39623  1_554   S
    C84    H36       1.08784      .   S
    C84    C69       1.39569  1_565   S
    C84    C54       1.39570  1_554   S
    C74    C73       1.40434  1_545   S
    C74    H26       1.08940      .   S
    C74    C82       1.39537  1_554   S
    C64    C63       1.40407  1_455   S
    C64    H18       1.08953      .   S
    C64    C78       1.39588  1_554   S
    C73    C77       1.49373      .   S
    C63    C67       1.49568      .   S
    C63    C79       1.39952  1_554   S
    C68    C69       1.40404      .   S
    C68    C72       1.49395      .   S
    C68    C85       1.39865  1_554   S
    C58    C59       1.40393      .   S
    C58    C62       1.49576      .   S
    C58    C81       1.39920  1_554   S
    C69    H22       1.08960      .   S
    C59    H14       1.08962      .   S
    O126   C62       1.26508      .   S
    O130   C72       1.26520      .   S
    O128   C67       1.26533      .   S
    O132   C77       1.26571      .   S
    C72    O131      1.29255      .   S
    C67    O129      1.30137  1_655   S
    C62    O127      1.29273      .   S
    C77    O133      1.29243  1_565   S
    H9     N97       1.02918      .   S
    H13    N101      1.02921      .   S
    H8     N97       1.03008      .   S
    H12    N101      1.03023      .   S
    H2     N89       1.03030      .   S
    H6     N93       1.03029      .   S
    H1     N89       1.02993      .   S
    H5     N93       1.03002      .   S
    N97    C50       1.33989      .   S
    N101   C55       1.34032      .   S
    N89    C40       1.34282      .   S
    N93    C45       1.34280      .   S
    C50    N95       1.35698      .   S
    C50    N96       1.37672      .   S
    C55    N99       1.35690      .   S
    C55    N100      1.37662      .   S
    C40    N87       1.35553      .   S
    C40    N88       1.37442      .   S
    C45    N91       1.35549      .   S
    C45    N92       1.37436      .   S
    N95    N94       1.39873      .   S
    N99    N98       1.39890  1_655   S
    N87    N86       1.39883  1_565   S
    N96    C51       1.35905      .   S
    N91    N90       1.39882      .   S
    N100   C56       1.35922  1_655   S
    N88    C41       1.35786  1_565   S
    N92    C46       1.35752      .   S
    H27    C76       1.08539      .   S
    H23    C71       1.08538      .   S
    H19    C66       1.08521      .   S
    H15    C61       1.08518      .   S
    N114   C76       1.32351      .   S
    N114   N115      1.39891  1_655   S
    N110   C71       1.32337      .   S
    N110   N111      1.39874      .   S
    C76    N116      1.35922  1_655   S
    C71    N112      1.35905      .   S
    N106   C66       1.32434      .   S
    N106   N107      1.39882      .   S
    N102   C61       1.32439      .   S
    N102   N103      1.39883  1_565   S
    C66    N108      1.35751      .   S
    C61    N104      1.35786  1_565   S
    C41    N86       1.32439      .   S
    C41    H0        1.08518      .   S
    C46    N90       1.32433      .   S
    C46    H4        1.08520      .   S
    C51    N94       1.32337      .   S
    C51    H7        1.08537      .   S
    C56    N98       1.32350      .   S
    C56    H11       1.08538      .   S
    N108   C65       1.37437      .   S
    N104   C60       1.37442      .   S
    N116   C75       1.37661      .   S
    N107   C65       1.35548      .   S
    N112   C70       1.37671      .   S
    N103   C60       1.35551      .   S
    N115   C75       1.35691      .   S
    N111   C70       1.35698      .   S
    C65    N109      1.34282      .   S
    C60    N105      1.34284      .   S
    C75    N117      1.34033      .   S
    C70    N113      1.33992      .   S
    N109   H20       1.03002      .   S
    N109   H21       1.03030      .   S
    N105   H16       1.02992      .   S
    N105   H17       1.03031      .   S
    O119   C42       1.29274      .   S
    O121   C47       1.29264      .   S
    O123   C52       1.29254      .   S
    O125   C57       1.29243  1_565   S
    N117   H28       1.03022      .   S
    N117   H29       1.02921      .   S
    N113   H24       1.03007      .   S
    N113   H25       1.02916      .   S
    C57    O124      1.26570      .   S
    C57    C53       1.49373      .   S
    C42    O118      1.26509      .   S
    C42    C38       1.49575      .   S
    C47    O120      1.26532      .   S
    C47    C43       1.49568      .   S
    C52    O122      1.26521      .   S
    C52    C48       1.49393      .   S
    H3     C44       1.08952      .   S
    H10    C54       1.08940      .   S
    C39    C38       1.40394      .   S
    C39    C78       1.39630  1_655   S
    C49    C48       1.40402      .   S
    C49    C82       1.39583  1_565   S
    C38    C79       1.39954      .   S
    C43    C44       1.40407  1_455   S
    C43    C81       1.39963      .   S
    C53    C54       1.40433  1_545   S
    C53    C85       1.39912      .   S
    H34    C82       1.08787      .   S
    H30    C78       1.08802      .   S
    H37    C85       1.08771      .   S
    H33    C81       1.08759      .   S
