# CIF file generated by openbabel 2.4.90, see http://openbabel.sf.net
data_I
_chemical_name_common ''
_cell_length_a 12.884
_cell_length_b 13.185
_cell_length_c 16.252
_cell_angle_alpha 113.652
_cell_angle_beta 112.964
_cell_angle_gamma 90.493
_space_group_name_H-M_alt 'P 1'
_space_group_name_Hall 'P 1'
loop_
    _symmetry_equiv_pos_as_xyz
    x,y,z
loop_
    _atom_site_label
    _atom_site_type_symbol
    _atom_site_fract_x
    _atom_site_fract_y
    _atom_site_fract_z
    _atom_site_occupancy
    Zr0     Zr   0.58865   0.13346   0.61281   1.000
    Zr1     Zr   0.02343   0.47920   0.61293   1.000
    Zr2     Zr   0.49010   0.59019   0.61517   1.000
    Zr3     Zr   0.12435   0.02518   0.61551   1.000
    Zr4     Zr   0.41130   0.86651   0.38707   1.000
    Zr5     Zr   0.97658   0.52076   0.38695   1.000
    Zr6     Zr   0.50990   0.40978   0.38470   1.000
    Zr7     Zr   0.87560   0.97475   0.38437   1.000
    Zr8     Zr   0.00000   0.13666   0.83826   1.000
    Zr9     Zr   0.70316   0.00000   0.83824   1.000
    N10     N    0.11094   0.72316   0.00029   1.000
    O11     O    0.06170   0.62610   0.83641   1.000
    O12     O    0.22601   0.79000   0.16395   1.000
    N13     N    0.26057   0.55084   0.61111   1.000
    O14     O    0.15687   0.53797   0.52628   1.000
    O15     O    0.17375   0.52768   0.60559   1.000
    O16     O    0.33272   0.56321   0.60523   1.000
    N17     N    0.73944   0.44910   0.38877   1.000
    O18     O    0.84313   0.46198   0.47360   1.000
    O19     O    0.82625   0.47226   0.39428   1.000
    O20     O    0.66728   0.43673   0.39464   1.000
    N21     N    0.43383   0.63950   0.38318   1.000
    O22     O    0.45999   0.62557   0.47183   1.000
    O23     O    0.45775   0.56113   0.38962   1.000
    O24     O    0.42766   0.71802   0.39151   1.000
    N25     N    0.95109   0.74415   0.38336   1.000
    O26     O    0.01263   0.84658   0.47206   1.000
    O27     O    0.93330   0.82877   0.38966   1.000
    O28     O    0.96529   0.67387   0.39162   1.000
    N29     N    0.35007   0.06011   0.61130   1.000
    O30     O    0.36943   0.98827   0.52645   1.000
    O31     O    0.43130   0.07766   0.60569   1.000
    O32     O    0.27200   0.04203   0.60548   1.000
    N33     N    0.27394   0.10742   0.00027   1.000
    O34     O    0.20528   0.05931   0.83712   1.000
    O35     O    0.36891   0.22266   0.16323   1.000
    N36     N    0.56614   0.36046   0.61668   1.000
    O37     O    0.54000   0.37439   0.52804   1.000
    O38     O    0.54223   0.43883   0.61025   1.000
    O39     O    0.57230   0.28194   0.60835   1.000
    N40     N    0.64988   0.93985   0.38858   1.000
    O41     O    0.63053   0.01169   0.47344   1.000
    O42     O    0.56865   0.92231   0.39419   1.000
    O43     O    0.72796   0.95792   0.39441   1.000
    N44     N    0.72750   0.89013   0.01036   1.000
    O45     O    0.63181   0.77611   0.84202   1.000
    O46     O    0.79540   0.93942   0.16813   1.000
    N47     N    0.88667   0.28614   0.01034   1.000
    O48     O    0.77277   0.21464   0.84131   1.000
    O49     O    0.93748   0.37852   0.16885   1.000
    N50     N    0.04889   0.25579   0.61651   1.000
    O51     O    0.98734   0.15336   0.52782   1.000
    O52     O    0.06667   0.17117   0.61021   1.000
    O53     O    0.03470   0.32608   0.60825   1.000
loop_
    _geom_bond_atom_site_label_1
    _geom_bond_atom_site_label_2
    _geom_bond_distance
    _geom_bond_site_symmetry_2
    _ccdc_geom_bond_type
    N10    O11       2.25099  1_554   S
    Zr1    O11       3.18231      .   S
    N10    O12       2.25134      .   S
    Zr4    O12       3.18354      .   S
    N13    O14       1.44413      .   S
    Zr5    O14       2.45949  1_655   S
    N13    O15       1.11638      .   S
    Zr1    O15       2.09622      .   S
    N13    O16       0.98951      .   S
    Zr2    O16       1.98748      .   S
    N17    O18       1.44413      .   S
    Zr1    O18       2.45949  1_455   S
    N17    O19       1.11638      .   S
    Zr5    O19       2.09622      .   S
    N17    O20       0.98947      .   S
    Zr6    O20       1.98740      .   S
    N21    O22       1.43442      .   S
    Zr2    O22       2.44236      .   S
    N21    O23       1.11387      .   S
    Zr6    O23       2.09214      .   S
    N21    O24       0.99697      .   S
    Zr4    O24       1.99782      .   S
    N25    O26       1.43466  1_655   S
    Zr3    O26       2.44350  1_545   S
    N25    O27       1.11310      .   S
    Zr7    O27       2.09090      .   S
    N25    O28       0.99689      .   S
    Zr5    O28       1.99829      .   S
    N29    O30       1.44416  1_545   S
    Zr4    O30       2.45962      .   S
    N29    O31       1.11549      .   S
    Zr0    O31       2.09472      .   S
    N29    O32       0.99051      .   S
    Zr3    O32       1.98950      .   S
    N33    O34       2.24191  1_554   S
    Zr3    O34       3.16584      .   S
    N33    O35       2.24290      .   S
    Zr6    O35       3.16820      .   S
    N36    O37       1.43442      .   S
    Zr6    O37       2.44236      .   S
    N36    O38       1.11385      .   S
    Zr2    O38       2.09211      .   S
    N36    O39       0.99692      .   S
    Zr0    O39       1.99773      .   S
    N40    O41       1.44418  1_565   S
    Zr0    O41       2.45968      .   S
    N40    O42       1.11548      .   S
    Zr4    O42       2.09469      .   S
    N40    O43       0.99050      .   S
    Zr7    O43       1.98950      .   S
    N44    O45       2.30244  1_554   S
    Zr2    O45       3.21767      .   S
    N44    O46       2.15990      .   S
    Zr7    O46       3.07897      .   S
    N47    O48       2.31111  1_554   S
    Zr0    O48       3.23374      .   S
    N47    O49       2.16824      .   S
    Zr5    O49       3.09701      .   S
    N50    O51       1.43469  1_455   S
    Zr7    O51       2.44355  1_565   S
    N50    O52       1.11314      .   S
    Zr3    O52       2.09097      .   S
    N50    O53       0.99688      .   S
    Zr1    O53       1.99831      .   S
