# CIF file generated by openbabel 2.4.90, see http://openbabel.sf.net
data_I
_chemical_name_common ''
_cell_length_a 12.884
_cell_length_b 13.185
_cell_length_c 16.252
_cell_angle_alpha 113.652
_cell_angle_beta 112.964
_cell_angle_gamma 90.493
_space_group_name_H-M_alt 'P 1'
_space_group_name_Hall 'P 1'
loop_
    _symmetry_equiv_pos_as_xyz
    x,y,z
loop_
    _atom_site_label
    _atom_site_type_symbol
    _atom_site_fract_x
    _atom_site_fract_y
    _atom_site_fract_z
    _atom_site_occupancy
    N0      N    0.11094   0.72316   0.00029   1.000
    N1      N    0.26057   0.55084   0.61111   1.000
    N2      N    0.73944   0.44910   0.38877   1.000
    N3      N    0.43383   0.63950   0.38318   1.000
    N4      N    0.95109   0.74415   0.38336   1.000
    N5      N    0.35007   0.06011   0.61130   1.000
    N6      N    0.27394   0.10742   0.00027   1.000
    N7      N    0.56614   0.36046   0.61668   1.000
    N8      N    0.64988   0.93985   0.38858   1.000
    N9      N    0.72750   0.89013   0.01036   1.000
    N10     N    0.88667   0.28614   0.01034   1.000
    N11     N    0.04889   0.25579   0.61651   1.000
    Zr12    Zr   0.87560   0.97475   0.38437   1.000
    O13     O    0.83550   0.95709   0.27625   1.000
    O14     O    0.93147   0.06406   0.45609   1.000
    O15     O    0.90445   0.90176   0.38701   1.000
    O16     O    0.80178   0.96633   0.38939   1.000
    Zr17    Zr   0.02343   0.47920   0.61293   1.000
    O18     O    0.09859   0.50344   0.60926   1.000
    O19     O    0.02906   0.40264   0.61059   1.000
    O20     O    0.93328   0.47059   0.54327   1.000
    O21     O    0.04256   0.55265   0.72467   1.000
    Zr22    Zr   0.58865   0.13346   0.61281   1.000
    O23     O    0.60959   0.07258   0.54312   1.000
    O24     O    0.50997   0.10556   0.60925   1.000
    O25     O    0.68071   0.17405   0.72706   1.000
    O26     O    0.58047   0.20770   0.61058   1.000
    Zr27    Zr   0.49010   0.59019   0.61517   1.000
    O28     O    0.56095   0.68315   0.72860   1.000
    O29     O    0.47505   0.60788   0.54350   1.000
    O30     O    0.41141   0.57670   0.61020   1.000
    O31     O    0.51617   0.51451   0.61271   1.000
    Zr32    Zr   0.50990   0.40978   0.38470   1.000
    O33     O    0.58859   0.42326   0.38967   1.000
    O34     O    0.48383   0.48545   0.38716   1.000
    O35     O    0.43941   0.31622   0.27396   1.000
    O36     O    0.52495   0.39209   0.45637   1.000
    Zr37    Zr   0.00000   0.13666   0.83826   1.000
    Zr38    Zr   0.97658   0.52076   0.38695   1.000
    O39     O    0.97093   0.59731   0.38928   1.000
    O40     O    0.95703   0.44964   0.27790   1.000
    O41     O    0.90141   0.49651   0.39062   1.000
    O42     O    0.06672   0.52937   0.45662   1.000
    Zr43    Zr   0.70316   0.00000   0.83824   1.000
    Zr44    Zr   0.12435   0.02518   0.61551   1.000
    O45     O    0.09551   0.09818   0.61286   1.000
    O46     O    0.19817   0.03361   0.61049   1.000
    O47     O    0.06849   0.93588   0.54378   1.000
    O48     O    0.16482   0.04225   0.72631   1.000
    Zr49    Zr   0.41130   0.86651   0.38707   1.000
    O50     O    0.48998   0.89441   0.39063   1.000
    O51     O    0.39036   0.92739   0.45676   1.000
    O52     O    0.41948   0.79227   0.38929   1.000
    O53     O    0.31865   0.82826   0.27551   1.000
loop_
    _geom_bond_atom_site_label_1
    _geom_bond_atom_site_label_2
    _geom_bond_distance
    _geom_bond_site_symmetry_2
    _ccdc_geom_bond_type
    Zr12   O13       1.53949      .   S
    N9     O13       3.68987      .   S
    Zr12   O14       1.22177  1_565   S
    N11    O14       2.65424  1_455   S
    Zr12   O15       1.04545      .   S
    N4     O15       2.15253      .   S
    Zr12   O16       0.99475      .   S
    N8     O16       1.97905      .   S
    Zr17   O18       1.04811      .   S
    N1     O18       2.15880      .   S
    Zr17   O19       0.99915      .   S
    N11    O19       1.99045      .   S
    Zr17   O20       1.22975  1_455   S
    N2     O20       2.67322      .   S
    Zr17   O21       1.59115      .   S
    N0     O21       3.83433  1_554   S
    Zr22   O23       1.22984      .   S
    N8     O23       2.67335  1_565   S
    Zr22   O24       1.04736      .   S
    N5     O24       2.15709      .   S
    Zr22   O25       1.61687      .   S
    N10    O25       3.91941  1_554   S
    Zr22   O26       0.99886      .   S
    N7     O26       1.99026      .   S
    Zr27   O28       1.60884      .   S
    N9     O28       3.90208  1_554   S
    Zr27   O29       1.22118      .   S
    N3     O29       2.65339      .   S
    Zr27   O30       0.99374      .   S
    N1     O30       1.97701      .   S
    Zr27   O31       1.04605      .   S
    N7     O31       2.15398      .   S
    Zr32   O33       0.99370      .   S
    N2     O33       1.97693      .   S
    Zr32   O34       1.04607      .   S
    N3     O34       2.15402      .   S
    Zr32   O35       1.58410      .   S
    N6     O35       3.81882      .   S
    Zr32   O36       1.22118      .   S
    N7     O36       2.65340      .   S
    Zr38   O39       0.99914      .   S
    N4     O39       1.99045      .   S
    Zr38   O40       1.54851      .   S
    N10    O40       3.70765      .   S
    Zr38   O41       1.04811      .   S
    N2     O41       2.15880      .   S
    Zr38   O42       1.22974  1_655   S
    N1     O42       2.67321      .   S
    Zr44   O45       1.04548      .   S
    N11    O45       2.15260      .   S
    Zr44   O46       0.99475      .   S
    N5     O46       1.97906      .   S
    Zr44   O47       1.22175  1_545   S
    N4     O47       2.65419  1_655   S
    Zr44   O48       1.58292      .   S
    N6     O48       3.81620  1_554   S
    Zr49   O50       1.04734      .   S
    N8     O50       2.15706      .   S
    Zr49   O51       1.22981      .   S
    N5     O51       2.67330  1_545   S
    Zr49   O52       0.99891      .   S
    N3     O52       1.99036      .   S
    Zr49   O53       1.59177      .   S
    N0     O53       3.83550      .   S
