# CIF file generated by openbabel 2.4.90, see http://openbabel.sf.net
data_I
_chemical_name_common ''
_cell_length_a 12.811
_cell_length_b 14.28
_cell_length_c 14.19
_cell_angle_alpha 78.507
_cell_angle_beta 63.467
_cell_angle_gamma 63.527
_space_group_name_H-M_alt 'P 1'
_space_group_name_Hall 'P 1'
loop_
    _symmetry_equiv_pos_as_xyz
    x,y,z
loop_
    _atom_site_label
    _atom_site_type_symbol
    _atom_site_fract_x
    _atom_site_fract_y
    _atom_site_fract_z
    _atom_site_occupancy
    Cu0     Cu   0.64576   0.53558   0.99972   1.000
    Cu1     Cu   0.43048   0.50046   0.96329   1.000
    Cu2     Cu   0.89433   0.50032   0.03792   1.000
    Cu3     Cu   0.64580   0.99874   0.53687   1.000
    Cu4     Cu   0.18192   0.99854   0.46233   1.000
    Cu5     Cu   0.89463   0.03709   0.50030   1.000
    Cu6     Cu   0.43034   0.96368   0.50070   1.000
    H7      H    0.71866   0.41041   0.25897   1.000
    H8      H    0.78354   0.36935   0.12794   1.000
    H9      H    0.35830   0.24144   0.08680   1.000
    H10     H    0.29293   0.37057   0.13100   1.000
    H11     H    0.37763   0.59472   0.74639   1.000
    H12     H    0.27531   0.63661   0.87757   1.000
    H13     H    0.69577   0.75329   0.90900   1.000
    H14     H    0.79897   0.62350   0.86562   1.000
    H15     H    0.22384   0.24490   0.90792   1.000
    H16     H    0.16330   0.37384   0.86260   1.000
    H17     H    0.69651   0.41200   0.74041   1.000
    H18     H    0.67096   0.37220   0.87196   1.000
    H19     H    0.37937   0.75282   0.08982   1.000
    H20     H    0.40499   0.62287   0.13274   1.000
    H21     H    0.85184   0.59145   0.25702   1.000
    H22     H    0.91287   0.63569   0.12690   1.000
    H23     H    0.37704   0.74860   0.59353   1.000
    H24     H    0.27470   0.87833   0.63747   1.000
    H25     H    0.69621   0.90677   0.75542   1.000
    H26     H    0.79931   0.86416   0.62455   1.000
    H27     H    0.71911   0.25584   0.41124   1.000
    H28     H    0.78516   0.12671   0.36688   1.000
    H29     H    0.35865   0.08705   0.23940   1.000
    H30     H    0.29420   0.12832   0.37032   1.000
    H31     H    0.37900   0.08954   0.75665   1.000
    Cu32    Cu   0.18181   0.46218   0.99905   1.000
    H33     H    0.40534   0.12980   0.62513   1.000
    H34     H    0.85226   0.25594   0.58951   1.000
    H35     H    0.91292   0.12731   0.63545   1.000
    H36     H    0.22502   0.90568   0.24369   1.000
    H37     H    0.16302   0.86294   0.37434   1.000
    H38     H    0.69627   0.74313   0.41241   1.000
    H39     H    0.67103   0.87339   0.37070   1.000
    H40     H    0.67046   0.26066   0.25991   1.000
    H41     H    0.83180   0.18507   0.18248   1.000
    H42     H    0.40773   0.23647   0.23781   1.000
    H43     H    0.24659   0.31240   0.31540   1.000
    H44     H    0.18320   0.74753   0.74709   1.000
    H45     H    0.19810   0.82125   0.82256   1.000
    H46     H    0.89012   0.75451   0.75628   1.000
    H47     H    0.87663   0.68003   0.68054   1.000
    H48     H    0.18342   0.23948   0.75485   1.000
    H49     H    0.27085   0.31445   0.67820   1.000
    H50     H    0.89275   0.26279   0.74199   1.000
    H51     H    0.80594   0.18759   0.81938   1.000
    H52     H    0.18312   0.75335   0.24141   1.000
    H53     H    0.26972   0.67873   0.31780   1.000
    H54     H    0.89277   0.74349   0.26154   1.000
    H55     H    0.80630   0.81909   0.18530   1.000
    C56     C    0.92078   0.33001   0.19170   1.000
    C57     C    0.15632   0.30684   0.16873   1.000
    C58     C    0.79205   0.34498   0.20370   1.000
    C59     C    0.28501   0.29495   0.15389   1.000
    C60     C    0.43981   0.67194   0.81058   1.000
    C61     C    0.63476   0.69021   0.82975   1.000
    C62     C    0.33451   0.65997   0.80108   1.000
    C63     C    0.73953   0.69965   0.84268   1.000
    C64     C    0.36255   0.30892   0.82793   1.000
    C65     C    0.57429   0.33173   0.80743   1.000
    C66     C    0.24592   0.29785   0.84080   1.000
    C67     C    0.68763   0.34702   0.79624   1.000
    C68     C    0.50171   0.68929   0.17048   1.000
    C69     C    0.71354   0.67032   0.19233   1.000
    C70     C    0.38829   0.69894   0.15623   1.000
    C71     C    0.83012   0.65779   0.20333   1.000
    C72     C    0.43963   0.81074   0.67233   1.000
    C73     C    0.63475   0.82887   0.69134   1.000
    C74     C    0.33413   0.80192   0.66002   1.000
    C75     C    0.73976   0.84113   0.70107   1.000
    C76     C    0.92119   0.19093   0.32969   1.000
    C77     C    0.15670   0.16776   0.30673   1.000
    C78     C    0.79276   0.20247   0.34420   1.000
    C79     C    0.28557   0.15262   0.29461   1.000
    C80     C    0.50184   0.16936   0.69053   1.000
    C81     C    0.71364   0.19203   0.67012   1.000
    C82     C    0.38840   0.15461   0.70110   1.000
    C83     C    0.83026   0.20330   0.65698   1.000
    C84     C    0.36258   0.82757   0.30918   1.000
    C85     C    0.57427   0.80814   0.33150   1.000
    C86     C    0.24606   0.83999   0.29816   1.000
    C87     C    0.68760   0.79774   0.34642   1.000
    C88     C    0.97889   0.25452   0.25482   1.000
    C89     C    0.09860   0.24328   0.24366   1.000
    C90     C    0.76862   0.24527   0.24446   1.000
    C91     C    0.30942   0.25211   0.25350   1.000
    C92     C    0.48714   0.74609   0.74640   1.000
    C93     C    0.58738   0.75477   0.75554   1.000
    C94     C    0.25323   0.76086   0.76093   1.000
    C95     C    0.82074   0.74068   0.74196   1.000
    C96     C    0.48400   0.24500   0.75395   1.000
    C97     C    0.59219   0.25599   0.74409   1.000
    C98     C    0.26606   0.25465   0.74055   1.000
    C99     C    0.81024   0.24718   0.75680   1.000
    C100    C    0.48394   0.75345   0.24555   1.000
    C101    C    0.59212   0.74417   0.25625   1.000
    C102    C    0.26568   0.73960   0.25654   1.000
    C103    C    0.81031   0.75766   0.24607   1.000
    Br104   Br   0.03790   0.58679   0.91303   1.000
    Br105   Br   0.53899   0.41166   0.08631   1.000
    Br106   Br   0.20112   0.58442   0.08910   1.000
    Br107   Br   0.87546   0.41221   0.91327   1.000
    Br108   Br   0.53919   0.08579   0.41210   1.000
    Br109   Br   0.03712   0.91373   0.58820   1.000
    Br110   Br   0.87540   0.91324   0.41214   1.000
    Br111   Br   0.20094   0.08845   0.58540   1.000
    N112    N    0.09804   0.37661   0.11035   1.000
    N113    N    0.97868   0.38887   0.12260   1.000
    N114    N    0.58660   0.62149   0.88890   1.000
    N115    N    0.48858   0.61190   0.87880   1.000
    N116    N    0.45760   0.39023   0.87644   1.000
    N117    N    0.35075   0.37826   0.88728   1.000
    N118    N    0.72537   0.61088   0.12295   1.000
    N119    N    0.61847   0.62089   0.11154   1.000
    N120    N    0.58649   0.88846   0.62250   1.000
    N121    N    0.48829   0.87901   0.61269   1.000
    N122    N    0.09852   0.10927   0.37627   1.000
    N123    N    0.97924   0.12148   0.38837   1.000
    N124    N    0.72552   0.12220   0.61128   1.000
    N125    N    0.61862   0.11037   0.62203   1.000
    N126    N    0.45760   0.87698   0.39000   1.000
    N127    N    0.35076   0.88725   0.37833   1.000
loop_
    _geom_bond_atom_site_label_1
    _geom_bond_atom_site_label_2
    _geom_bond_distance
    _geom_bond_site_symmetry_2
    _ccdc_geom_bond_type
    Cu2    N113      2.00231      .   S
    Cu2    N118      2.00317      .   S
    Br105  Cu1       2.51033  1_554   S
    H9     C59       1.10608      .   S
    Br106  Cu1       2.50679  1_554   S
    H19    C70       1.10539      .   S
    N112   N113      1.39106  1_455   S
    N112   C57       1.34049      .   S
    N112   Cu32      2.00624  1_554   S
    N119   N118      1.39161      .   S
    N119   C68       1.34026      .   S
    N119   Cu0       2.00466  1_554   S
    N113   C56       1.34002      .   S
    N118   C69       1.34079      .   S
    H22    C71       1.10029      .   S
    H8     C58       1.10019      .   S
    H10    C59       1.10024      .   S
    H20    C70       1.10021      .   S
    C59    C57       1.49846      .   S
    C59    C91       1.53289      .   S
    C70    C68       1.49799      .   S
    C70    C102      1.53272      .   S
    C57    C89       1.41864      .   S
    C68    C100      1.41854      .   S
    H41    C90       1.10118      .   S
    H55    C103      1.10173      .   S
    C56    C58       1.49802      .   S
    C56    C88       1.41914      .   S
    C69    C71       1.49865      .   S
    C69    C101      1.41861      .   S
    C71    C103      1.53312      .   S
    C71    H21       1.10546      .   S
    C58    C90       1.53287      .   S
    C58    H7        1.10545      .   S
    H42    C91       1.09735      .   S
    H29    C79       1.10567      .   S
    H52    C102      1.09735      .   S
    C89    C88       1.40588  1_455   S
    C89    C77       1.41871      .   S
    H36    C86       1.10542      .   S
    C90    H40       1.09737      .   S
    C90    C78       1.53301      .   S
    C100   C101      1.40625      .   S
    C100   C84       1.41855      .   S
    C103   H54       1.09737      .   S
    C103   C87       1.53272      .   S
    C91    C79       1.53286      .   S
    C91    H43       1.10118      .   S
    C88    C76       1.41848      .   S
    C101   C85       1.41814      .   S
    C102   C86       1.53308      .   S
    C102   H53       1.10132      .   S
    C79    C77       1.49825      .   S
    C79    H30       1.10011      .   S
    C86    C84       1.49859      .   S
    C86    H37       1.10027      .   S
    C77    N122      1.34031      .   S
    C84    N127      1.34071      .   S
    C76    C78       1.49856      .   S
    C76    N123      1.34039      .   S
    C85    C87       1.49822      .   S
    C85    N126      1.34019      .   S
    C78    H28       1.10028      .   S
    C78    H27       1.10539      .   S
    C87    H39       1.09973      .   S
    C87    H38       1.10547      .   S
    N122   N123      1.39102  1_455   S
    N122   Cu4       2.00575  1_545   S
    N127   N126      1.39140      .   S
    N127   Cu4       2.00293      .   S
    N123   Cu5       2.00338      .   S
    N126   Cu6       2.00549      .   S
    Br108  Cu6       2.50869  1_545   S
    Br110  Cu3       2.50667      .   S
    Cu4    Br109     2.50571      .   S
    Cu5    N124      2.00444      .   S
    Cu6    Br111     2.50697  1_565   S
    Cu6    N121      2.00659      .   S
    Cu3    N125      2.00492  1_565   S
    Cu3    N120      2.00328      .   S
    H34    C83       1.10547      .   S
    H23    C74       1.10541      .   S
    N124   N125      1.39153      .   S
    N124   C81       1.34082      .   S
    N121   N120      1.39125      .   S
    N121   C72       1.34054      .   S
    N125   C80       1.34018      .   S
    N120   C73       1.34154      .   S
    H26    C75       1.10023      .   S
    H33    C82       1.09975      .   S
    H35    C83       1.10031      .   S
    H24    C74       1.10026      .   S
    C83    C81       1.49876      .   S
    C83    C99       1.53316      .   S
    C74    C72       1.49819      .   S
    C74    C94       1.53288      .   S
    C81    C97       1.41868      .   S
    C72    C92       1.41825      .   S
    H49    C98       1.10125      .   S
    H47    C95       1.10129      .   S
    C80    C82       1.49807      .   S
    C80    C96       1.41854      .   S
    C73    C75       1.49835      .   S
    C73    C93       1.41862      .   S
    C75    C95       1.53295      .   S
    C75    H25       1.10547      .   S
    C82    C98       1.53274      .   S
    C82    H31       1.10560      .   S
    H17    C67       1.10559      .   S
    C98    H48       1.09734      .   S
    C98    C66       1.53314      .   S
    C95    H46       1.09736      .   S
    C95    C63       1.53288      .   S
    H50    C99       1.09733      .   S
    C97    C96       1.40619      .   S
    C97    C65       1.41855      .   S
    H11    C62       1.10543      .   S
    C92    C93       1.40644      .   S
    C92    C60       1.41878      .   S
    H44    C94       1.09734      .   S
    C96    C64       1.41860      .   S
    C93    C61       1.41864      .   S
    C99    C67       1.53272      .   S
    C99    H51       1.10121      .   S
    C94    C62       1.53290      .   S
    C94    H45       1.10135      .   S
    C67    C65       1.49797      .   S
    C67    H18       1.09994      .   S
    C62    C60       1.49819      .   S
    C62    H12       1.10020      .   S
    C65    N116      1.34026      .   S
    C60    N115      1.33962      .   S
    C64    C66       1.49873      .   S
    C64    N117      1.34075      .   S
    C61    C63       1.49819      .   S
    C61    N114      1.34044      .   S
    C66    H16       1.10032      .   S
    C66    H15       1.10539      .   S
    C63    H14       1.10021      .   S
    C63    H13       1.10447      .   S
    N116   N117      1.39164      .   S
    N116   Cu1       2.00506      .   S
    N115   N114      1.39223      .   S
    N115   Cu1       2.00558      .   S
    N117   Cu32      2.00343      .   S
    N114   Cu0       2.00482      .   S
    Br104  Cu32      2.50514      .   S
    Br107  Cu0       2.50643      .   S
