# CIF file generated by openbabel 2.4.90, see http://openbabel.sf.net
data_I
_chemical_name_common ''
_cell_length_a 12.811
_cell_length_b 14.28
_cell_length_c 14.19
_cell_angle_alpha 78.507
_cell_angle_beta 63.467
_cell_angle_gamma 63.527
_space_group_name_H-M_alt 'P 1'
_space_group_name_Hall 'P 1'
loop_
    _symmetry_equiv_pos_as_xyz
    x,y,z
loop_
    _atom_site_label
    _atom_site_type_symbol
    _atom_site_fract_x
    _atom_site_fract_y
    _atom_site_fract_z
    _atom_site_occupancy
    Cu0     Cu   0.64576   0.53558   0.99972   1.000
    Cu1     Cu   0.43048   0.50046   0.96329   1.000
    Cu2     Cu   0.89433   0.50032   0.03792   1.000
    Cu3     Cu   0.64580   0.99874   0.53687   1.000
    Cu4     Cu   0.18192   0.99854   0.46233   1.000
    Cu5     Cu   0.89463   0.03709   0.50030   1.000
    Cu6     Cu   0.43034   0.96368   0.50070   1.000
    Cu7     Cu   0.18181   0.46218   0.99905   1.000
    Br8     Br   0.03790   0.58679   0.91303   1.000
    Br9     Br   0.53899   0.41166   0.08631   1.000
    Br10    Br   0.20112   0.58442   0.08910   1.000
    Br11    Br   0.87546   0.41221   0.91327   1.000
    Br12    Br   0.53919   0.08579   0.41210   1.000
    Br13    Br   0.03712   0.91373   0.58820   1.000
    Br14    Br   0.87540   0.91324   0.41214   1.000
    Br15    Br   0.20094   0.08845   0.58540   1.000
loop_
    _geom_bond_atom_site_label_1
    _geom_bond_atom_site_label_2
    _geom_bond_distance
    _geom_bond_site_symmetry_2
    _ccdc_geom_bond_type
    Br9    Cu1       2.51033  1_554   S
    Br10   Cu1       2.50679  1_554   S
    Br12   Cu6       2.50869  1_545   S
    Br14   Cu3       2.50667      .   S
    Cu4    Br13      2.50571      .   S
    Cu6    Br15      2.50697  1_565   S
    Br8    Cu7       2.50514      .   S
    Br11   Cu0       2.50643      .   S
