# CIF file generated by openbabel 2.4.90, see http://openbabel.sf.net
data_I
_chemical_name_common ''
_cell_length_a 12.811
_cell_length_b 14.28
_cell_length_c 14.19
_cell_angle_alpha 78.507
_cell_angle_beta 63.467
_cell_angle_gamma 63.527
_space_group_name_H-M_alt 'P 1'
_space_group_name_Hall 'P 1'
loop_
    _symmetry_equiv_pos_as_xyz
    x,y,z
loop_
    _atom_site_label
    _atom_site_type_symbol
    _atom_site_fract_x
    _atom_site_fract_y
    _atom_site_fract_z
    _atom_site_occupancy
    N0      N    0.03884   0.24879   0.24912   1.000
    N1      N    0.53708   0.75061   0.75116   1.000
    N2      N    0.53809   0.25066   0.74884   1.000
    N3      N    0.53803   0.74869   0.25102   1.000
    Zr4     Zr   0.76061   0.47389   0.95650   1.000
    O5      O    0.66862   0.56923   0.90212   1.000
    O6      O    0.67284   0.56868   0.05491   1.000
    Zr7     Zr   0.39020   0.49885   0.04623   1.000
    O8      O    0.44425   0.57612   0.94117   1.000
    O9      O    0.44063   0.42342   0.94029   1.000
    Zr10    Zr   0.89433   0.50032   0.03792   1.000
    O11     O    0.78413   0.57623   0.10182   1.000
    O12     O    0.94100   0.42351   0.10131   1.000
    Zr13    Zr   0.76060   0.95599   0.47451   1.000
    O14     O    0.66861   0.90154   0.56996   1.000
    O15     O    0.67288   0.05430   0.56933   1.000
    Zr16    Zr   0.10952   0.95614   0.52527   1.000
    O17     O    0.25585   0.90096   0.43047   1.000
    O18     O    0.09952   0.05374   0.42974   1.000
    Zr19    Zr   0.89463   0.03709   0.50030   1.000
    O20     O    0.94126   0.10057   0.42351   1.000
    O21     O    0.78436   0.10112   0.57631   1.000
    Zr22    Zr   0.39016   0.04597   0.49940   1.000
    O23     O    0.44418   0.94098   0.57666   1.000
    O24     O    0.44058   0.94024   0.42379   1.000
    Zr25    Zr   0.10986   0.52448   0.95604   1.000
    O26     O    0.09962   0.42929   0.05398   1.000
    O27     O    0.25602   0.42996   0.90102   1.000
loop_
    _geom_bond_atom_site_label_1
    _geom_bond_atom_site_label_2
    _geom_bond_distance
    _geom_bond_site_symmetry_2
    _ccdc_geom_bond_type
    Zr4    O5        1.67366      .   S
    N1     O5        3.35544      .   S
    Zr4    O6        1.74355  1_556   S
    N3     O6        3.45442      .   S
    Zr7    O8        1.73872  1_554   S
    N1     O8        3.46297      .   S
    Zr7    O9        1.73041  1_554   S
    N2     O9        3.45248      .   S
    Zr10   O11       1.36892      .   S
    N3     O11       3.11111      .   S
    Zr10   O12       1.36831      .   S
    N0     O12       3.10979  1_455   S
    Zr13   O14       1.67307      .   S
    N1     O14       3.35482      .   S
    Zr13   O15       1.74339  1_565   S
    N2     O15       3.45446      .   S
    Zr16   O17       1.67245      .   S
    N3     O17       3.35480      .   S
    Zr16   O18       1.74345  1_565   S
    N0     O18       3.45486      .   S
    Zr19   O20       1.36868      .   S
    N0     O20       3.11045  1_455   S
    Zr19   O21       1.36936      .   S
    N2     O21       3.11184      .   S
    Zr22   O23       1.73978  1_545   S
    N1     O23       3.46467      .   S
    Zr22   O24       1.73344  1_545   S
    N3     O24       3.45613      .   S
    Zr25   O26       1.74348  1_556   S
    N0     O26       3.45491      .   S
    Zr25   O27       1.67278      .   S
    N2     O27       3.35555      .   S
