# CIF file generated by openbabel 2.4.90, see http://openbabel.sf.net
data_I
_chemical_name_common ''
_cell_length_a 12.811
_cell_length_b 14.28
_cell_length_c 14.19
_cell_angle_alpha 78.507
_cell_angle_beta 63.467
_cell_angle_gamma 63.527
_space_group_name_H-M_alt 'P 1'
_space_group_name_Hall 'P 1'
loop_
    _symmetry_equiv_pos_as_xyz
    x,y,z
loop_
    _atom_site_label
    _atom_site_type_symbol
    _atom_site_fract_x
    _atom_site_fract_y
    _atom_site_fract_z
    _atom_site_occupancy
    Zr0     Zr   0.18181   0.46218   0.99905   1.000
    Zr1     Zr   0.64576   0.53558   0.99972   1.000
    Zr2     Zr   0.43048   0.50046   0.96329   1.000
    Zr3     Zr   0.89433   0.50032   0.03792   1.000
    Zr4     Zr   0.64580   0.99874   0.53687   1.000
    Zr5     Zr   0.18192   0.99854   0.46233   1.000
    Zr6     Zr   0.89463   0.03709   0.50030   1.000
    Zr7     Zr   0.43034   0.96368   0.50070   1.000
    Zr8     Zr   0.03790   0.58679   0.91303   1.000
    Zr9     Zr   0.53899   0.41166   0.08631   1.000
    Zr10    Zr   0.20112   0.58442   0.08910   1.000
    Zr11    Zr   0.87546   0.41221   0.91327   1.000
    Zr12    Zr   0.53919   0.08579   0.41210   1.000
    Zr13    Zr   0.03712   0.91373   0.58820   1.000
    Zr14    Zr   0.87540   0.91324   0.41214   1.000
    Zr15    Zr   0.20094   0.08845   0.58540   1.000
    O16     O    0.48473   0.45606   0.02480   1.000
    O17     O    0.31580   0.54244   0.02619   1.000
    O18     O    0.48477   0.02474   0.45640   1.000
    O19     O    0.76060   0.95599   0.47451   1.000
    O20     O    0.10952   0.95614   0.52527   1.000
    O21     O    0.31564   0.02606   0.54305   1.000
    O22     O    0.10986   0.52448   0.95604   1.000
    O23     O    0.76061   0.47389   0.95650   1.000
    N24     N    0.03884   0.24879   0.24912   1.000
    O25     O    0.08938   0.33409   0.15191   1.000
    O26     O    0.98767   0.34670   0.16469   1.000
    O27     O    0.08953   0.15135   0.33421   1.000
    O28     O    0.98789   0.16404   0.34673   1.000
    N29     N    0.53708   0.75061   0.75116   1.000
    O30     O    0.57663   0.66457   0.84774   1.000
    O31     O    0.49831   0.65339   0.83610   1.000
    O32     O    0.57661   0.84710   0.66542   1.000
    O33     O    0.49820   0.83598   0.65393   1.000
    N34     N    0.53809   0.25066   0.74884   1.000
    O35     O    0.49107   0.34800   0.83435   1.000
    O36     O    0.40219   0.33544   0.84600   1.000
    O37     O    0.67408   0.16515   0.65232   1.000
    O38     O    0.58515   0.15261   0.66415   1.000
    N39     N    0.53803   0.74869   0.25102   1.000
    O40     O    0.67394   0.65215   0.16573   1.000
    O41     O    0.58507   0.66346   0.15332   1.000
    O42     O    0.49100   0.83451   0.34818   1.000
    O43     O    0.40218   0.84579   0.33567   1.000
loop_
    _geom_bond_atom_site_label_1
    _geom_bond_atom_site_label_2
    _geom_bond_distance
    _geom_bond_site_symmetry_2
    _ccdc_geom_bond_type
    Zr9    O16       1.25517      .   S
    Zr2    O16       1.25517  1_556   S
    Zr10   O17       1.25340      .   S
    Zr2    O17       1.25340  1_556   S
    Zr12   O18       1.25434      .   S
    Zr7    O18       1.25434  1_565   S
    Zr14   O19       1.25333      .   S
    Zr4    O19       1.25333      .   S
    Zr5    O20       1.25285      .   S
    Zr13   O20       1.25285      .   S
    Zr7    O21       1.25349  1_565   S
    Zr15   O21       1.25349      .   S
    Zr8    O22       1.25257      .   S
    Zr0    O22       1.25257      .   S
    Zr11   O23       1.25321      .   S
    Zr1    O23       1.25321      .   S
    N24    O25       1.74396      .   S
    Zr0    O25       2.74002  1_556   S
    N24    O26       1.74262  1_455   S
    Zr3    O26       2.73662      .   S
    N24    O27       1.74392      .   S
    Zr5    O27       2.73983  1_565   S
    N24    O28       1.74293  1_455   S
    Zr6    O28       2.73737      .   S
    N29    O30       1.74313      .   S
    Zr1    O30       2.73811      .   S
    N29    O31       1.74350      .   S
    Zr2    O31       2.73894      .   S
    N29    O32       1.74331      .   S
    Zr4    O32       2.73762      .   S
    N29    O33       1.74368      .   S
    Zr7    O33       2.73940      .   S
    N34    O35       1.74351      .   S
    Zr2    O35       2.73888      .   S
    N34    O36       1.74332      .   S
    Zr0    O36       2.73777      .   S
    N34    O37       1.74362      .   S
    Zr6    O37       2.73872      .   S
    N34    O38       1.74330      .   S
    Zr4    O38       2.73846  1_565   S
    N39    O40       1.74332      .   S
    Zr3    O40       2.73785      .   S
    N39    O41       1.74304      .   S
    Zr1    O41       2.73794  1_556   S
    N39    O42       1.74323      .   S
    Zr7    O42       2.73871      .   S
    N39    O43       1.74326      .   S
    Zr5    O43       2.73753      .   S
