# CIF file generated by openbabel 2.4.90, see http://openbabel.sf.net
data_I
_chemical_name_common ''
_cell_length_a 12.811
_cell_length_b 14.28
_cell_length_c 14.19
_cell_angle_alpha 78.507
_cell_angle_beta 63.467
_cell_angle_gamma 63.527
_space_group_name_H-M_alt 'P 1'
_space_group_name_Hall 'P 1'
loop_
    _symmetry_equiv_pos_as_xyz
    x,y,z
loop_
    _atom_site_label
    _atom_site_type_symbol
    _atom_site_fract_x
    _atom_site_fract_y
    _atom_site_fract_z
    _atom_site_occupancy
    C0      C    0.18181   0.46218   0.99905   1.000
    C1      C    0.64576   0.53558   0.99972   1.000
    C2      C    0.43048   0.50046   0.96329   1.000
    C3      C    0.89433   0.50032   0.03792   1.000
    C4      C    0.64580   0.99874   0.53687   1.000
    C5      C    0.18192   0.99854   0.46233   1.000
    C6      C    0.89463   0.03709   0.50030   1.000
    C7      C    0.43034   0.96368   0.50070   1.000
    C8      C    0.71866   0.41041   0.25897   1.000
    C9      C    0.78354   0.36935   0.12794   1.000
    C10     C    0.35830   0.24144   0.08680   1.000
    C11     C    0.29293   0.37057   0.13100   1.000
    C12     C    0.37763   0.59472   0.74639   1.000
    C13     C    0.27531   0.63661   0.87757   1.000
    C14     C    0.69577   0.75329   0.90900   1.000
    C15     C    0.79897   0.62350   0.86562   1.000
    C16     C    0.22384   0.24490   0.90792   1.000
    C17     C    0.16330   0.37384   0.86260   1.000
    C18     C    0.69651   0.41200   0.74041   1.000
    C19     C    0.67096   0.37220   0.87196   1.000
    C20     C    0.37937   0.75282   0.08982   1.000
    C21     C    0.40499   0.62287   0.13274   1.000
    C22     C    0.85184   0.59145   0.25702   1.000
    C23     C    0.91287   0.63569   0.12690   1.000
    C24     C    0.37704   0.74860   0.59353   1.000
    C25     C    0.27470   0.87833   0.63747   1.000
    C26     C    0.69621   0.90677   0.75542   1.000
    C27     C    0.79931   0.86416   0.62455   1.000
    C28     C    0.71911   0.25584   0.41124   1.000
    C29     C    0.78516   0.12671   0.36688   1.000
    C30     C    0.35865   0.08705   0.23940   1.000
    C31     C    0.29420   0.12832   0.37032   1.000
    C32     C    0.37900   0.08954   0.75665   1.000
    C33     C    0.40534   0.12980   0.62513   1.000
    C34     C    0.85226   0.25594   0.58951   1.000
    C35     C    0.91292   0.12731   0.63545   1.000
    C36     C    0.22502   0.90568   0.24369   1.000
    C37     C    0.16302   0.86294   0.37434   1.000
    C38     C    0.69627   0.74313   0.41241   1.000
    C39     C    0.67103   0.87339   0.37070   1.000
    C40     C    0.67046   0.26066   0.25991   1.000
    C41     C    0.83180   0.18507   0.18248   1.000
    C42     C    0.40773   0.23647   0.23781   1.000
    C43     C    0.24659   0.31240   0.31540   1.000
    C44     C    0.18320   0.74753   0.74709   1.000
    C45     C    0.19810   0.82125   0.82256   1.000
    C46     C    0.89012   0.75451   0.75628   1.000
    C47     C    0.87663   0.68003   0.68054   1.000
    C48     C    0.18342   0.23948   0.75485   1.000
    C49     C    0.27085   0.31445   0.67820   1.000
    C50     C    0.89275   0.26279   0.74199   1.000
    C51     C    0.80594   0.18759   0.81938   1.000
    C52     C    0.18312   0.75335   0.24141   1.000
    C53     C    0.26972   0.67873   0.31780   1.000
    C54     C    0.89277   0.74349   0.26154   1.000
    C55     C    0.80630   0.81909   0.18530   1.000
    C56     C    0.92078   0.33001   0.19170   1.000
    C57     C    0.15632   0.30684   0.16873   1.000
    C58     C    0.79205   0.34498   0.20370   1.000
    C59     C    0.28501   0.29495   0.15389   1.000
    C60     C    0.43981   0.67194   0.81058   1.000
    C61     C    0.63476   0.69021   0.82975   1.000
    C62     C    0.33451   0.65997   0.80108   1.000
    C63     C    0.73953   0.69965   0.84268   1.000
    C64     C    0.36255   0.30892   0.82793   1.000
    C65     C    0.57429   0.33173   0.80743   1.000
    C66     C    0.24592   0.29785   0.84080   1.000
    C67     C    0.68763   0.34702   0.79624   1.000
    C68     C    0.50171   0.68929   0.17048   1.000
    C69     C    0.71354   0.67032   0.19233   1.000
    C70     C    0.38829   0.69894   0.15623   1.000
    C71     C    0.83012   0.65779   0.20333   1.000
    C72     C    0.43963   0.81074   0.67233   1.000
    C73     C    0.63475   0.82887   0.69134   1.000
    C74     C    0.33413   0.80192   0.66002   1.000
    C75     C    0.73976   0.84113   0.70107   1.000
    C76     C    0.92119   0.19093   0.32969   1.000
    C77     C    0.15670   0.16776   0.30673   1.000
    C78     C    0.79276   0.20247   0.34420   1.000
    C79     C    0.28557   0.15262   0.29461   1.000
    C80     C    0.50184   0.16936   0.69053   1.000
    C81     C    0.71364   0.19203   0.67012   1.000
    C82     C    0.38840   0.15461   0.70110   1.000
    C83     C    0.83026   0.20330   0.65698   1.000
    C84     C    0.36258   0.82757   0.30918   1.000
    C85     C    0.57427   0.80814   0.33150   1.000
    C86     C    0.24606   0.83999   0.29816   1.000
    C87     C    0.68760   0.79774   0.34642   1.000
    C88     C    0.97889   0.25452   0.25482   1.000
    C89     C    0.09860   0.24328   0.24366   1.000
    C90     C    0.76862   0.24527   0.24446   1.000
    C91     C    0.30942   0.25211   0.25350   1.000
    C92     C    0.48714   0.74609   0.74640   1.000
    C93     C    0.58738   0.75477   0.75554   1.000
    C94     C    0.25323   0.76086   0.76093   1.000
    C95     C    0.82074   0.74068   0.74196   1.000
    C96     C    0.48400   0.24500   0.75395   1.000
    C97     C    0.59219   0.25599   0.74409   1.000
    C98     C    0.26606   0.25465   0.74055   1.000
    C99     C    0.81024   0.24718   0.75680   1.000
    C100    C    0.48394   0.75345   0.24555   1.000
    C101    C    0.59212   0.74417   0.25625   1.000
    C102    C    0.26568   0.73960   0.25654   1.000
    C103    C    0.81031   0.75766   0.24607   1.000
    C104    C    0.03790   0.58679   0.91303   1.000
    C105    C    0.53899   0.41166   0.08631   1.000
    C106    C    0.20112   0.58442   0.08910   1.000
    C107    C    0.87546   0.41221   0.91327   1.000
    C108    C    0.53919   0.08579   0.41210   1.000
    C109    C    0.03712   0.91373   0.58820   1.000
    C110    C    0.87540   0.91324   0.41214   1.000
    C111    C    0.20094   0.08845   0.58540   1.000
    C112    C    0.09804   0.37661   0.11035   1.000
    C113    C    0.97868   0.38887   0.12260   1.000
    C114    C    0.58660   0.62149   0.88890   1.000
    C115    C    0.48858   0.61190   0.87880   1.000
    C116    C    0.45760   0.39023   0.87644   1.000
    C117    C    0.35075   0.37826   0.88728   1.000
    C118    C    0.72537   0.61088   0.12295   1.000
    C119    C    0.61847   0.62089   0.11154   1.000
    C120    C    0.58649   0.88846   0.62250   1.000
    C121    C    0.48829   0.87901   0.61269   1.000
    C122    C    0.09852   0.10927   0.37627   1.000
    C123    C    0.97924   0.12148   0.38837   1.000
    C124    C    0.72552   0.12220   0.61128   1.000
    C125    C    0.61862   0.11037   0.62203   1.000
    C126    C    0.45760   0.87698   0.39000   1.000
    C127    C    0.35076   0.88725   0.37833   1.000
    O128    O    0.93651   0.44460   0.08026   1.000
    O129    O    0.80985   0.55560   0.08044   1.000
    O130    O    0.48473   0.45606   0.02480   1.000
    O131    O    0.32166   0.26819   0.12035   1.000
    O132    O    0.31580   0.54244   0.02619   1.000
    O133    O    0.38383   0.72588   0.12303   1.000
    O134    O    0.03836   0.38274   0.11648   1.000
    O135    O    0.12718   0.34172   0.13954   1.000
    O136    O    0.13993   0.41939   0.05470   1.000
    O137    O    0.67192   0.61588   0.11725   1.000
    O138    O    0.56009   0.65509   0.14101   1.000
    O139    O    0.63211   0.57823   0.05563   1.000
    O140    O    0.94973   0.35944   0.15715   1.000
    O141    O    0.71945   0.64060   0.15764   1.000
    O142    O    0.87150   0.64674   0.16512   1.000
    O143    O    0.78780   0.35717   0.16582   1.000
    O144    O    0.28897   0.33276   0.14245   1.000
    O145    O    0.39664   0.66090   0.14449   1.000
    O146    O    0.22067   0.30089   0.16131   1.000
    O147    O    0.29721   0.27353   0.20370   1.000
    O148    O    0.44500   0.69412   0.16336   1.000
    O149    O    0.32698   0.71927   0.20638   1.000
    O150    O    0.12746   0.27506   0.20619   1.000
    O151    O    0.49283   0.72137   0.20801   1.000
    O152    O    0.80021   0.21517   0.21347   1.000
    O153    O    0.80830   0.78837   0.21569   1.000
    O154    O    0.85642   0.33750   0.19770   1.000
    O155    O    0.94984   0.29227   0.22326   1.000
    O156    O    0.77183   0.66406   0.19783   1.000
    O157    O    0.65283   0.70725   0.22429   1.000
    O158    O    0.82021   0.70772   0.22470   1.000
    O159    O    0.84098   0.62462   0.23018   1.000
    O160    O    0.78033   0.29513   0.22408   1.000
    O161    O    0.75535   0.37770   0.23133   1.000
    O162    O    0.35857   0.24429   0.24566   1.000
    O163    O    0.32211   0.11983   0.26700   1.000
    O164    O    0.22440   0.74648   0.24898   1.000
    O165    O    0.03875   0.24890   0.24924   1.000
    O166    O    0.12765   0.20552   0.27520   1.000
    O167    O    0.23554   0.87283   0.27092   1.000
    O168    O    0.71954   0.25297   0.25219   1.000
    O169    O    0.78069   0.22387   0.29433   1.000
    O170    O    0.53803   0.74881   0.25090   1.000
    O171    O    0.42326   0.79051   0.27737   1.000
    O172    O    0.85154   0.75058   0.25381   1.000
    O173    O    0.74895   0.77770   0.29625   1.000
    O174    O    0.29749   0.20236   0.27405   1.000
    O175    O    0.27801   0.28226   0.28445   1.000
    O176    O    0.95004   0.22273   0.29225   1.000
    O177    O    0.58319   0.77616   0.29387   1.000
    O178    O    0.25587   0.78979   0.27735   1.000
    O179    O    0.26770   0.70917   0.28717   1.000
    O180    O    0.22113   0.16019   0.30067   1.000
    O181    O    0.28989   0.14047   0.33246   1.000
    O182    O    0.30432   0.83378   0.30367   1.000
    O183    O    0.20454   0.85146   0.33625   1.000
    O184    O    0.12761   0.13851   0.34150   1.000
    O185    O    0.35667   0.85741   0.34375   1.000
    O186    O    0.85697   0.19670   0.33694   1.000
    O187    O    0.95021   0.15621   0.35903   1.000
    O188    O    0.63093   0.80294   0.33896   1.000
    O189    O    0.51593   0.84256   0.36075   1.000
    O190    O    0.78896   0.16459   0.35554   1.000
    O191    O    0.75594   0.22916   0.37772   1.000
    O192    O    0.67931   0.83557   0.35856   1.000
    O193    O    0.69193   0.77043   0.37941   1.000
    O194    O    0.03888   0.11537   0.38232   1.000
    O195    O    0.14022   0.05390   0.41930   1.000
    O196    O    0.40418   0.88212   0.38417   1.000
    O197    O    0.26634   0.94289   0.42033   1.000
    O198    O    0.93694   0.07929   0.44434   1.000
    O199    O    0.44397   0.92033   0.44535   1.000
    O200    O    0.48477   0.02474   0.45640   1.000
    O201    O    0.76060   0.95599   0.47451   1.000
    O202    O    0.10952   0.95614   0.52527   1.000
    O203    O    0.81008   0.07964   0.55579   1.000
    O204    O    0.31564   0.02606   0.54305   1.000
    O205    O    0.45932   0.92135   0.55670   1.000
    O206    O    0.63221   0.05456   0.57945   1.000
    O207    O    0.61615   0.94360   0.57969   1.000
    O208    O    0.84126   0.22962   0.62325   1.000
    O209    O    0.35558   0.77526   0.62678   1.000
    O210    O    0.67207   0.11628   0.61665   1.000
    O211    O    0.71958   0.15711   0.64070   1.000
    O212    O    0.53739   0.88374   0.61760   1.000
    O213    O    0.46396   0.84488   0.64251   1.000
    O214    O    0.56023   0.13987   0.65628   1.000
    O215    O    0.61062   0.85867   0.65692   1.000
    O216    O    0.76954   0.85264   0.66281   1.000
    O217    O    0.39687   0.14221   0.66312   1.000
    O218    O    0.87159   0.16531   0.64621   1.000
    O219    O    0.30441   0.84013   0.64875   1.000
    O220    O    0.77195   0.19767   0.66355   1.000
    O221    O    0.82025   0.22524   0.70689   1.000
    O222    O    0.38688   0.80633   0.66617   1.000
    O223    O    0.29368   0.78139   0.71047   1.000
    O224    O    0.65292   0.22401   0.70710   1.000
    O225    O    0.46339   0.77841   0.70937   1.000
    O226    O    0.26846   0.28455   0.70938   1.000
    O227    O    0.84868   0.71035   0.71125   1.000
    O228    O    0.44512   0.16199   0.69581   1.000
    O229    O    0.49292   0.20718   0.72224   1.000
    O230    O    0.68725   0.83500   0.69620   1.000
    O231    O    0.61106   0.79182   0.72344   1.000
    O232    O    0.78025   0.79090   0.72152   1.000
    O233    O    0.71799   0.87395   0.72825   1.000
    O234    O    0.32723   0.20463   0.72082   1.000
    O235    O    0.38370   0.12208   0.72888   1.000
    O236    O    0.69207   0.37951   0.76833   1.000
    O237    O    0.22474   0.24707   0.74770   1.000
    O238    O    0.25599   0.27625   0.79068   1.000
    O239    O    0.85543   0.74760   0.74912   1.000
    O240    O    0.78013   0.72016   0.79232   1.000
    O241    O    0.85150   0.25499   0.74940   1.000
    O242    O    0.53810   0.25049   0.74902   1.000
    O243    O    0.58324   0.29386   0.77576   1.000
    O244    O    0.35607   0.62735   0.77374   1.000
    O245    O    0.53726   0.75043   0.75097   1.000
    O246    O    0.46348   0.70902   0.77849   1.000
    O247    O    0.21821   0.75419   0.75401   1.000
    O248    O    0.42328   0.27696   0.79094   1.000
    O249    O    0.61107   0.72249   0.79265   1.000
    O250    O    0.74894   0.29710   0.77652   1.000
    O251    O    0.80809   0.21738   0.78809   1.000
    O252    O    0.29387   0.71042   0.78101   1.000
    O253    O    0.22566   0.79105   0.79175   1.000
    O254    O    0.63096   0.33937   0.80183   1.000
    O255    O    0.67929   0.35961   0.83410   1.000
    O256    O    0.38716   0.66596   0.80583   1.000
    O257    O    0.30491   0.64829   0.83933   1.000
    O258    O    0.51595   0.36098   0.84193   1.000
    O259    O    0.46420   0.64192   0.84469   1.000
    O260    O    0.30424   0.30338   0.83437   1.000
    O261    O    0.35665   0.34359   0.85761   1.000
    O262    O    0.68714   0.69493   0.83622   1.000
    O263    O    0.61068   0.65585   0.85933   1.000
    O264    O    0.20461   0.33584   0.85170   1.000
    O265    O    0.23488   0.27137   0.87436   1.000
    O266    O    0.76925   0.66157   0.85415   1.000
    O267    O    0.71765   0.72647   0.87584   1.000
    O268    O    0.40417   0.38424   0.88186   1.000
    O269    O    0.44404   0.44534   0.91987   1.000
    O270    O    0.53759   0.61669   0.88385   1.000
    O271    O    0.45953   0.55618   0.92105   1.000
    O272    O    0.26628   0.42022   0.94316   1.000
    O273    O    0.61618   0.57854   0.94431   1.000
    O274    O    0.10986   0.52448   0.95604   1.000
    O275    O    0.76061   0.47389   0.95650   1.000
loop_
    _geom_bond_atom_site_label_1
    _geom_bond_atom_site_label_2
    _geom_bond_distance
    _geom_bond_site_symmetry_2
    _ccdc_geom_bond_type
    C3     O128      1.00116      .   S
    C113   O128      1.00116      .   S
    C3     O129      1.00159      .   S
    C118   O129      1.00159      .   S
    C105   O130      1.25517      .   S
    C2     O130      1.25517  1_556   S
    C10    O131      0.55304      .   S
    C59    O131      0.55304      .   S
    C106   O132      1.25340      .   S
    C2     O132      1.25340  1_556   S
    C20    O133      0.55270      .   S
    C70    O133      0.55270      .   S
    C112   O134      0.69553      .   S
    C113   O134      0.69553  1_655   S
    C112   O135      0.67025      .   S
    C57    O135      0.67025      .   S
    C112   O136      1.00312      .   S
    C0     O136      1.00312  1_556   S
    C119   O137      0.69580      .   S
    C118   O137      0.69580      .   S
    C119   O138      0.67013      .   S
    C68    O138      0.67013      .   S
    C119   O139      1.00233      .   S
    C1     O139      1.00233  1_556   S
    C113   O140      0.67001      .   S
    C56    O140      0.67001      .   S
    C118   O141      0.67039      .   S
    C69    O141      0.67039      .   S
    C23    O142      0.55015      .   S
    C71    O142      0.55015      .   S
    C9     O143      0.55010      .   S
    C58    O143      0.55010      .   S
    C11    O144      0.55012      .   S
    C59    O144      0.55012      .   S
    C21    O145      0.55011      .   S
    C70    O145      0.55011      .   S
    C59    O146      0.74923      .   S
    C57    O146      0.74923      .   S
    C59    O147      0.76644      .   S
    C91    O147      0.76644      .   S
    C70    O148      0.74900      .   S
    C68    O148      0.74900      .   S
    C70    O149      0.76636      .   S
    C102   O149      0.76636      .   S
    C57    O150      0.70932      .   S
    C89    O150      0.70932      .   S
    C68    O151      0.70927      .   S
    C100   O151      0.70927      .   S
    C41    O152      0.55059      .   S
    C90    O152      0.55059      .   S
    C55    O153      0.55086      .   S
    C103   O153      0.55086      .   S
    C56    O154      0.74901      .   S
    C58    O154      0.74901      .   S
    C56    O155      0.70957      .   S
    C88    O155      0.70957      .   S
    C69    O156      0.74932      .   S
    C71    O156      0.74932      .   S
    C69    O157      0.70930      .   S
    C101   O157      0.70930      .   S
    C71    O158      0.76656      .   S
    C103   O158      0.76656      .   S
    C71    O159      0.55273      .   S
    C22    O159      0.55273      .   S
    C58    O160      0.76644      .   S
    C90    O160      0.76644      .   S
    C58    O161      0.55273      .   S
    C8     O161      0.55273      .   S
    C42    O162      0.54867      .   S
    C91    O162      0.54867      .   S
    C30    O163      0.55284      .   S
    C79    O163      0.55284      .   S
    C52    O164      0.54868      .   S
    C102   O164      0.54868      .   S
    C89    O165      0.70294      .   S
    C88    O165      0.70294  1_655   S
    C89    O166      0.70935      .   S
    C77    O166      0.70935      .   S
    C36    O167      0.55271      .   S
    C86    O167      0.55271      .   S
    C90    O168      0.54869      .   S
    C40    O168      0.54869      .   S
    C90    O169      0.76650      .   S
    C78    O169      0.76650      .   S
    C100   O170      0.70312      .   S
    C101   O170      0.70312      .   S
    C100   O171      0.70928      .   S
    C84    O171      0.70928      .   S
    C103   O172      0.54869      .   S
    C54    O172      0.54869      .   S
    C103   O173      0.76636      .   S
    C87    O173      0.76636      .   S
    C91    O174      0.76643      .   S
    C79    O174      0.76643      .   S
    C91    O175      0.55059      .   S
    C43    O175      0.55059      .   S
    C88    O176      0.70924      .   S
    C76    O176      0.70924      .   S
    C101   O177      0.70907      .   S
    C85    O177      0.70907      .   S
    C102   O178      0.76654      .   S
    C86    O178      0.76654      .   S
    C102   O179      0.55066      .   S
    C53    O179      0.55066      .   S
    C79    O180      0.74912      .   S
    C77    O180      0.74912      .   S
    C79    O181      0.55005      .   S
    C31    O181      0.55005      .   S
    C86    O182      0.74929      .   S
    C84    O182      0.74929      .   S
    C86    O183      0.55013      .   S
    C37    O183      0.55013      .   S
    C77    O184      0.67016      .   S
    C122   O184      0.67016      .   S
    C84    O185      0.67036      .   S
    C127   O185      0.67036      .   S
    C76    O186      0.74928      .   S
    C78    O186      0.74928      .   S
    C76    O187      0.67019      .   S
    C123   O187      0.67019      .   S
    C85    O188      0.74911      .   S
    C87    O188      0.74911      .   S
    C85    O189      0.67010      .   S
    C126   O189      0.67010      .   S
    C78    O190      0.55014      .   S
    C29    O190      0.55014      .   S
    C78    O191      0.55270      .   S
    C28    O191      0.55270      .   S
    C87    O192      0.54987      .   S
    C39    O192      0.54987      .   S
    C87    O193      0.55274      .   S
    C38    O193      0.55274      .   S
    C122   O194      0.69551      .   S
    C123   O194      0.69551  1_655   S
    C122   O195      1.00288      .   S
    C5     O195      1.00288  1_565   S
    C127   O196      0.69570      .   S
    C126   O196      0.69570      .   S
    C127   O197      1.00146      .   S
    C5     O197      1.00146      .   S
    C123   O198      1.00169      .   S
    C6     O198      1.00169      .   S
    C126   O199      1.00275      .   S
    C7     O199      1.00275      .   S
    C108   O200      1.25434      .   S
    C7     O200      1.25434  1_565   S
    C110   O201      1.25333      .   S
    C4     O201      1.25333      .   S
    C5     O202      1.25285      .   S
    C109   O202      1.25285      .   S
    C6     O203      1.00222      .   S
    C124   O203      1.00222      .   S
    C7     O204      1.25349  1_565   S
    C111   O204      1.25349      .   S
    C7     O205      1.00330      .   S
    C121   O205      1.00330      .   S
    C4     O206      1.00246  1_565   S
    C125   O206      1.00246      .   S
    C4     O207      1.00164      .   S
    C120   O207      1.00164      .   S
    C34    O208      0.55274      .   S
    C83    O208      0.55274      .   S
    C24    O209      0.55270      .   S
    C74    O209      0.55270      .   S
    C124   O210      0.69576      .   S
    C125   O210      0.69576      .   S
    C124   O211      0.67041      .   S
    C81    O211      0.67041      .   S
    C121   O212      0.69562      .   S
    C120   O212      0.69562      .   S
    C121   O213      0.67027      .   S
    C72    O213      0.67027      .   S
    C125   O214      0.67009      .   S
    C80    O214      0.67009      .   S
    C120   O215      0.67077      .   S
    C73    O215      0.67077      .   S
    C27    O216      0.55011      .   S
    C75    O216      0.55011      .   S
    C33    O217      0.54988      .   S
    C82    O217      0.54988      .   S
    C35    O218      0.55016      .   S
    C83    O218      0.55016      .   S
    C25    O219      0.55013      .   S
    C74    O219      0.55013      .   S
    C83    O220      0.74938      .   S
    C81    O220      0.74938      .   S
    C83    O221      0.76658      .   S
    C99    O221      0.76658      .   S
    C74    O222      0.74910      .   S
    C72    O222      0.74910      .   S
    C74    O223      0.76644      .   S
    C94    O223      0.76644      .   S
    C81    O224      0.70934      .   S
    C97    O224      0.70934      .   S
    C72    O225      0.70912      .   S
    C92    O225      0.70912      .   S
    C49    O226      0.55063      .   S
    C98    O226      0.55063      .   S
    C47    O227      0.55065      .   S
    C95    O227      0.55065      .   S
    C80    O228      0.74903      .   S
    C82    O228      0.74903      .   S
    C80    O229      0.70927      .   S
    C96    O229      0.70927      .   S
    C73    O230      0.74918      .   S
    C75    O230      0.74918      .   S
    C73    O231      0.70931      .   S
    C93    O231      0.70931      .   S
    C75    O232      0.76647      .   S
    C95    O232      0.76647      .   S
    C75    O233      0.55273      .   S
    C26    O233      0.55273      .   S
    C82    O234      0.76637      .   S
    C98    O234      0.76637      .   S
    C82    O235      0.55280      .   S
    C32    O235      0.55280      .   S
    C18    O236      0.55279      .   S
    C67    O236      0.55279      .   S
    C98    O237      0.54867      .   S
    C48    O237      0.54867      .   S
    C98    O238      0.76657      .   S
    C66    O238      0.76657      .   S
    C95    O239      0.54868      .   S
    C46    O239      0.54868      .   S
    C95    O240      0.76644      .   S
    C63    O240      0.76644      .   S
    C50    O241      0.54866      .   S
    C99    O241      0.54866      .   S
    C97    O242      0.70309      .   S
    C96    O242      0.70309      .   S
    C97    O243      0.70928      .   S
    C65    O243      0.70928      .   S
    C12    O244      0.55272      .   S
    C62    O244      0.55272      .   S
    C92    O245      0.70322      .   S
    C93    O245      0.70322      .   S
    C92    O246      0.70939      .   S
    C60    O246      0.70939      .   S
    C44    O247      0.54867      .   S
    C94    O247      0.54867      .   S
    C96    O248      0.70930      .   S
    C64    O248      0.70930      .   S
    C93    O249      0.70932      .   S
    C61    O249      0.70932      .   S
    C99    O250      0.76636      .   S
    C67    O250      0.76636      .   S
    C99    O251      0.55061      .   S
    C51    O251      0.55061      .   S
    C94    O252      0.76645      .   S
    C62    O252      0.76645      .   S
    C94    O253      0.55067      .   S
    C45    O253      0.55067      .   S
    C67    O254      0.74898      .   S
    C65    O254      0.74898      .   S
    C67    O255      0.54997      .   S
    C19    O255      0.54997      .   S
    C62    O256      0.74910      .   S
    C60    O256      0.74910      .   S
    C62    O257      0.55010      .   S
    C13    O257      0.55010      .   S
    C65    O258      0.67013      .   S
    C116   O258      0.67013      .   S
    C60    O259      0.66981      .   S
    C115   O259      0.66981      .   S
    C64    O260      0.74937      .   S
    C66    O260      0.74937      .   S
    C64    O261      0.67037      .   S
    C117   O261      0.67037      .   S
    C61    O262      0.74909      .   S
    C63    O262      0.74909      .   S
    C61    O263      0.67022      .   S
    C114   O263      0.67022      .   S
    C66    O264      0.55016      .   S
    C17    O264      0.55016      .   S
    C66    O265      0.55269      .   S
    C16    O265      0.55269      .   S
    C63    O266      0.55011      .   S
    C15    O266      0.55011      .   S
    C63    O267      0.55223      .   S
    C14    O267      0.55223      .   S
    C116   O268      0.69582      .   S
    C117   O268      0.69582      .   S
    C116   O269      1.00253      .   S
    C2     O269      1.00253      .   S
    C115   O270      0.69612      .   S
    C114   O270      0.69612      .   S
    C115   O271      1.00279      .   S
    C2     O271      1.00279      .   S
    C117   O272      1.00172      .   S
    C0     O272      1.00172      .   S
    C114   O273      1.00241      .   S
    C1     O273      1.00241      .   S
    C104   O274      1.25257      .   S
    C0     O274      1.25257      .   S
    C107   O275      1.25321      .   S
    C1     O275      1.25321      .   S
