# CIF file generated by openbabel 2.4.90, see http://openbabel.sf.net
data_I
_chemical_name_common ''
_cell_length_a 14.019
_cell_length_b 14.615
_cell_length_c 16.671
_cell_angle_alpha 116.044
_cell_angle_beta 88.38
_cell_angle_gamma 90.024
_space_group_name_H-M_alt 'P 1'
_space_group_name_Hall 'P 1'
loop_
    _symmetry_equiv_pos_as_xyz
    x,y,z
loop_
    _atom_site_label
    _atom_site_type_symbol
    _atom_site_fract_x
    _atom_site_fract_y
    _atom_site_fract_z
    _atom_site_occupancy
    H0      H    0.54453   0.88582   0.67871   1.000
    H1      H    0.74772   0.67932   0.70275   1.000
    H2      H    0.71197   0.68015   0.44771   1.000
    H3      H    0.95212   0.20785   0.32087   1.000
    H4      H    0.75310   0.97391   0.29782   1.000
    H5      H    0.78760   0.23098   0.55258   1.000
    H6      H    0.45555   0.11416   0.32136   1.000
    H7      H    0.25243   0.32070   0.29729   1.000
    H8      H    0.28810   0.31986   0.55234   1.000
    H9      H    0.04791   0.79215   0.67916   1.000
    H10     H    0.24692   0.02611   0.70225   1.000
    H11     H    0.21244   0.76906   0.44747   1.000
    C12     C    0.62264   0.78622   0.55701   1.000
    C13     C    0.59711   0.82451   0.64792   1.000
    C14     C    0.63816   0.78248   0.70036   1.000
    C15     C    0.71022   0.70798   0.66198   1.000
    C16     C    0.73776   0.67174   0.57160   1.000
    C17     C    0.69215   0.70891   0.51823   1.000
    C18     C    0.87526   0.22906   0.44288   1.000
    C19     C    0.90057   0.17657   0.35190   1.000
    C20     C    0.86072   0.08122   0.29970   1.000
    C21     C    0.78988   0.04404   0.33838   1.000
    C22     C    0.76265   0.09787   0.42878   1.000
    C23     C    0.80719   0.18939   0.48198   1.000
    C24     C    0.37744   0.21377   0.44304   1.000
    C25     C    0.40297   0.17548   0.35214   1.000
    C26     C    0.36196   0.21752   0.29969   1.000
    C27     C    0.28990   0.29202   0.33800   1.000
    C28     C    0.26236   0.32827   0.42838   1.000
    C29     C    0.30793   0.29109   0.48182   1.000
    C30     C    0.12478   0.77096   0.55716   1.000
    C31     C    0.09946   0.82344   0.64814   1.000
    C32     C    0.13931   0.91879   0.70034   1.000
    C33     C    0.21015   0.95597   0.66168   1.000
    C34     C    0.23738   0.90215   0.57127   1.000
    C35     C    0.19285   0.81063   0.51807   1.000
loop_
    _geom_bond_atom_site_label_1
    _geom_bond_atom_site_label_2
    _geom_bond_distance
    _geom_bond_site_symmetry_2
    _ccdc_geom_bond_type
    H7     C27       1.08738      .   S
    H4     C21       1.08824  1_565   S
    C26    C27       1.40277      .   S
    C26    C25       1.40472      .   S
    C20    C21       1.40291      .   S
    C20    C19       1.40476      .   S
    H3     C19       1.08866      .   S
    H6     C25       1.08859      .   S
    C27    C28       1.40227      .   S
    C21    C22       1.40089      .   S
    C19    C18       1.40104      .   S
    C25    C24       1.40092      .   S
    C28    C29       1.39812      .   S
    C22    C23       1.39804      .   S
    C18    C23       1.40283      .   S
    C24    C29       1.40295      .   S
    H11    C35       1.08801      .   S
    H2     C17       1.08798      .   S
    C29    H8        1.08801      .   S
    C23    H5        1.08801      .   S
    C35    C30       1.40279      .   S
    C35    C34       1.39798      .   S
    C17    C12       1.40295      .   S
    C17    C16       1.39725      .   S
    C12    C13       1.40102      .   S
    C30    C31       1.40105      .   S
    C34    C33       1.40103      .   S
    C16    C15       1.40223      .   S
    C13    H0        1.08858      .   S
    C13    C14       1.40465      .   S
    C31    H9        1.08863      .   S
    C31    C32       1.40472      .   S
    C33    C32       1.40282      .   S
    C33    H10       1.08825  1_565   S
    C15    C14       1.40287      .   S
    C15    H1        1.08822      .   S
