# CIF file generated by openbabel 2.4.90, see http://openbabel.sf.net
data_I
_chemical_name_common ''
_cell_length_a 14.019
_cell_length_b 14.615
_cell_length_c 16.671
_cell_angle_alpha 116.044
_cell_angle_beta 88.38
_cell_angle_gamma 90.024
_space_group_name_H-M_alt 'P 1'
_space_group_name_Hall 'P 1'
loop_
    _symmetry_equiv_pos_as_xyz
    x,y,z
loop_
    _atom_site_label
    _atom_site_type_symbol
    _atom_site_fract_x
    _atom_site_fract_y
    _atom_site_fract_z
    _atom_site_occupancy
    H0      H    0.52406   0.66443   0.05091   1.000
    H1      H    0.56571   0.62309   0.89151   1.000
    H2      H    0.57885   0.94329   0.96023   1.000
    H3      H    0.53468   0.98397   0.11964   1.000
    H4      H    0.60650   0.67090   0.77873   1.000
    H5      H    0.97614   0.61298   0.94800   1.000
    H6      H    0.93420   0.73083   0.10806   1.000
    H7      H    0.92116   0.98281   0.04017   1.000
    H8      H    0.96565   0.86429   0.88070   1.000
    H9      H    0.89375   0.89140   0.22117   1.000
    H10     H    0.47599   0.33557   0.94914   1.000
    H11     H    0.43439   0.37692   0.10855   1.000
    H12     H    0.42133   0.05672   0.03985   1.000
    H13     H    0.46545   0.01604   0.88043   1.000
    H14     H    0.39365   0.32911   0.22134   1.000
    H15     H    0.02385   0.38702   0.05144   1.000
    H16     H    0.06578   0.26917   0.89198   1.000
    H17     H    0.07885   0.01719   0.95987   1.000
    H18     H    0.03436   0.13572   0.11930   1.000
    H19     H    0.10624   0.10860   0.77887   1.000
    C20     C    0.52702   0.82634   0.09404   1.000
    C21     C    0.53574   0.72459   0.03003   1.000
    C22     C    0.55904   0.70219   0.94169   1.000
    C23     C    0.57425   0.78088   0.91592   1.000
    C24     C    0.56603   0.88298   0.98070   1.000
    C25     C    0.54219   0.90543   0.06881   1.000
    C26     C    0.59837   0.75343   0.82233   1.000
    C27     C    0.97323   0.73201   0.90588   1.000
    C28     C    0.96442   0.69407   0.96968   1.000
    C29     C    0.94096   0.75991   0.05805   1.000
    C30     C    0.92564   0.86443   0.08405   1.000
    C31     C    0.93402   0.90197   0.01949   1.000
    C32     C    0.95805   0.83642   0.93136   1.000
    C33     C    0.90129   0.93041   0.17764   1.000
    C34     C    0.47307   0.17367   0.90602   1.000
    C35     C    0.46435   0.27542   0.97003   1.000
    C36     C    0.44106   0.29782   0.05837   1.000
    C37     C    0.42589   0.21913   0.08410   1.000
    C38     C    0.43412   0.11703   0.01930   1.000
    C39     C    0.45795   0.09457   0.93126   1.000
    C40     C    0.40178   0.24658   0.17774   1.000
    C41     C    0.02677   0.26799   0.09416   1.000
    C42     C    0.03557   0.30593   0.03036   1.000
    C43     C    0.05903   0.24008   0.94199   1.000
    C44     C    0.07435   0.13557   0.91599   1.000
    C45     C    0.06598   0.09804   0.98055   1.000
    C46     C    0.04196   0.16358   0.06868   1.000
    C47     C    0.09871   0.06959   0.82240   1.000
    N48     N    0.60856   0.81902   0.79040   1.000
    N49     N    0.89026   0.02785   0.20958   1.000
    N50     N    0.39156   0.18098   0.20961   1.000
    N51     N    0.10976   0.97215   0.79046   1.000
loop_
    _geom_bond_atom_site_label_1
    _geom_bond_atom_site_label_2
    _geom_bond_distance
    _geom_bond_site_symmetry_2
    _ccdc_geom_bond_type
    C38    H12       1.08993      .   S
    C38    C37       1.40871      .   S
    C38    C39       1.38667  1_554   S
    C31    H7        1.08922      .   S
    C31    C30       1.40867      .   S
    C31    C32       1.38785  1_554   S
    C21    H0        1.08916      .   S
    C21    C20       1.40156      .   S
    C21    C22       1.39008  1_554   S
    C42    H15       1.08912      .   S
    C42    C41       1.40156      .   S
    C42    C43       1.39014  1_554   S
    C29    C30       1.40745      .   S
    C29    H6        1.09155      .   S
    C29    C28       1.39015  1_554   S
    C36    C37       1.40701      .   S
    C36    H11       1.09152      .   S
    C36    C35       1.39005  1_554   S
    C46    C41       1.40720      .   S
    C46    H18       1.08901      .   S
    C46    C45       1.38783  1_554   S
    C25    C20       1.40715      .   S
    C25    H3        1.08973      .   S
    C25    C24       1.38781  1_554   S
    C30    C33       1.45938      .   S
    C37    C40       1.46030      .   S
    C33    N49       1.29038  1_565   S
    C33    H9        1.10538      .   S
    C40    N50       1.29019      .   S
    C40    H14       1.10535      .   S
    H4     C26       1.10536      .   S
    H19    C47       1.10535      .   S
    N48    C26       1.29084      .   S
    N51    C47       1.29038  1_565   S
    C26    C23       1.45954      .   S
    C47    C44       1.45939      .   S
    H13    C39       1.08973      .   S
    H8     C32       1.08966      .   S
    H1     C22       1.09152      .   S
    H16    C43       1.09151      .   S
    C27    C32       1.40721      .   S
    C27    C28       1.40160      .   S
    C34    C39       1.40718      .   S
    C34    C35       1.40157      .   S
    C23    C22       1.40750      .   S
    C23    C24       1.40861      .   S
    C44    C43       1.40744      .   S
    C44    C45       1.40865      .   S
    H5     C28       1.08758      .   S
    H10    C35       1.08917      .   S
    H17    C45       1.08924      .   S
    H2     C24       1.08915      .   S
