# CIF file generated by openbabel 2.4.90, see http://openbabel.sf.net
data_I
_chemical_name_common ''
_cell_length_a 14.019
_cell_length_b 14.615
_cell_length_c 16.671
_cell_angle_alpha 116.044
_cell_angle_beta 88.38
_cell_angle_gamma 90.024
_space_group_name_H-M_alt 'P 1'
_space_group_name_Hall 'P 1'
loop_
    _symmetry_equiv_pos_as_xyz
    x,y,z
loop_
    _atom_site_label
    _atom_site_type_symbol
    _atom_site_fract_x
    _atom_site_fract_y
    _atom_site_fract_z
    _atom_site_occupancy
    La0     La   0.00893   0.52407   0.62545   1.000
    La1     La   0.50954   0.10105   0.62565   1.000
    La2     La   0.99118   0.47594   0.37459   1.000
    La3     La   0.49051   0.89893   0.37440   1.000
    C4      C    0.50337   0.85090   0.18895   1.000
    C5      C    0.57666   0.82805   0.50061   1.000
    C6      C    0.81793   0.59583   0.53564   1.000
    C7      C    0.99688   0.66174   0.81091   1.000
    C8      C    0.92006   0.32819   0.49910   1.000
    C9      C    0.68365   0.05699   0.46519   1.000
    C10     C    0.49667   0.14910   0.81110   1.000
    C11     C    0.42339   0.17194   0.49940   1.000
    C12     C    0.18220   0.40421   0.46439   1.000
    C13     C    0.00315   0.33827   0.18913   1.000
    C14     C    0.07999   0.67183   0.50080   1.000
    C15     C    0.31638   0.94303   0.53487   1.000
    O16     O    0.49230   0.77870   0.21279   1.000
    O17     O    0.49644   0.94446   0.24691   1.000
    O18     O    0.57583   0.77622   0.41639   1.000
    O19     O    0.53718   0.91778   0.53872   1.000
    O20     O    0.85626   0.56816   0.59019   1.000
    O21     O    0.84513   0.56335   0.45363   1.000
    O22     O    0.00000   0.56560   0.78690   1.000
    O23     O    0.00386   0.69742   0.75311   1.000
    O24     O    0.92046   0.36113   0.58345   1.000
    O25     O    0.95906   0.37985   0.46090   1.000
    O26     O    0.64500   0.97485   0.41060   1.000
    O27     O    0.65769   0.10579   0.54761   1.000
    O28     O    0.50775   0.22129   0.78726   1.000
    O29     O    0.50362   0.05554   0.75315   1.000
    O30     O    0.42422   0.22377   0.58367   1.000
    O31     O    0.46285   0.08219   0.46134   1.000
    O32     O    0.14394   0.43192   0.40983   1.000
    O33     O    0.15495   0.43665   0.54638   1.000
    O34     O    0.99227   0.43441   0.21315   1.000
    O35     O    0.99618   0.30258   0.24694   1.000
    O36     O    0.07956   0.63892   0.41659   1.000
    O37     O    0.04102   0.62014   0.53910   1.000
    O38     O    0.35504   0.02516   0.58947   1.000
    O39     O    0.34236   0.89422   0.45245   1.000
loop_
    _geom_bond_atom_site_label_1
    _geom_bond_atom_site_label_2
    _geom_bond_distance
    _geom_bond_site_symmetry_2
    _ccdc_geom_bond_type
    C4     O16       1.28844      .   S
    C4     O17       1.28348      .   S
    C13    O34       1.28866  1_455   S
    C13    O35       1.28311  1_455   S
    O16    La3       2.48717      .   S
    O34    La2       2.48503      .   S
    O17    La3       2.48971      .   S
    O35    La2       2.49194      .   S
    La3    O26       2.40213      .   S
    La3    O18       2.50777      .   S
    La3    O39       2.43661      .   S
    La3    O31       2.44638  1_565   S
    La2    O32       2.39770  1_655   S
    La2    O36       2.50629  1_655   S
    La2    O21       2.43556      .   S
    La2    O25       2.44583      .   S
    O32    C12       1.27685      .   S
    O26    C9        1.27706  1_565   S
    O18    C5        1.26974      .   S
    O36    C14       1.26876      .   S
    O39    C15       1.28087      .   S
    O21    C6        1.28092      .   S
    O25    C8        1.29493      .   S
    O31    C11       1.29576      .   S
    C12    O33       1.28087      .   S
    C9     O27       1.28083      .   S
    C8     O24       1.27091      .   S
    C11    O30       1.27043      .   S
    C5     O19       1.29579      .   S
    C14    O37       1.29632      .   S
    C15    O38       1.27708  1_565   S
    C6     O20       1.27674      .   S
    O19    La1       2.44647  1_565   S
    O37    La0       2.44615      .   S
    O33    La0       2.43533      .   S
    O27    La1       2.43660      .   S
    O24    La0       2.50635  1_655   S
    O30    La1       2.50764      .   S
    O38    La1       2.40207      .   S
    O20    La0       2.39714  1_655   S
    La0    O23       2.49204      .   S
    La0    O22       2.48493      .   S
    La1    O29       2.48976      .   S
    La1    O28       2.48721      .   S
    O23    C7        1.28296  1_455   S
    O29    C10       1.28348      .   S
    O22    C7        1.28125  1_455   S
    O28    C10       1.28841      .   S
    O19    La3       2.72887      .   S
    O25    La0       2.73611  1_655   S
    O31    La1       2.72872      .   S
    O37    La2       2.73547  1_455   S
