# CIF file generated by openbabel 2.4.90, see http://openbabel.sf.net
data_I
_chemical_name_common ''
_cell_length_a 14.019
_cell_length_b 14.615
_cell_length_c 16.671
_cell_angle_alpha 116.044
_cell_angle_beta 88.38
_cell_angle_gamma 90.024
_space_group_name_H-M_alt 'P 1'
_space_group_name_Hall 'P 1'
loop_
    _symmetry_equiv_pos_as_xyz
    x,y,z
loop_
    _atom_site_label
    _atom_site_type_symbol
    _atom_site_fract_x
    _atom_site_fract_y
    _atom_site_fract_z
    _atom_site_occupancy
    N0      N    0.33318   0.25254   0.39045   1.000
    N1      N    0.66692   0.74746   0.60959   1.000
    N2      N    0.16791   0.86325   0.60950   1.000
    N3      N    0.83212   0.13677   0.39054   1.000
    Zr4     Zr   0.99965   0.50001   0.50001   1.000
    O5      O    0.13869   0.40470   0.45921   1.000
    O6      O    0.86102   0.59532   0.54081   1.000
    Zr7     Zr   0.50002   1.00000   0.50003   1.000
    O8      O    0.63883   0.05355   0.45940   1.000
    O9      O    0.36121   0.94646   0.54066   1.000
    O10     O    0.45694   0.10200   0.59539   1.000
    O11     O    0.54313   0.89800   0.40466   1.000
    O12     O    0.04338   0.50685   0.40469   1.000
    O13     O    0.95628   0.49317   0.59532   1.000
loop_
    _geom_bond_atom_site_label_1
    _geom_bond_atom_site_label_2
    _geom_bond_distance
    _geom_bond_site_symmetry_2
    _ccdc_geom_bond_type
    Zr4    O5        2.30167  1_655   S
    N0     O5        3.35907      .   S
    Zr4    O6        2.29689      .   S
    N1     O6        3.35454      .   S
    Zr7    O8        2.29078  1_565   S
    N3     O8        3.34465      .   S
    Zr7    O9        2.29078      .   S
    N2     O9        3.34465      .   S
    Zr7    O10       1.72617  1_565   S
    N0     O10       5.14418      .   S
    Zr7    O11       1.72631      .   S
    N1     O11       5.14414      .   S
    N2     O12       5.15266      .   S
    Zr4    O12       1.73060  1_655   S
    Zr4    O13       1.72894      .   S
    N3     O13       5.15068      .   S
