# CIF file generated by openbabel 2.4.90, see http://openbabel.sf.net
data_I
_chemical_name_common ''
_cell_length_a 14.019
_cell_length_b 14.615
_cell_length_c 16.671
_cell_angle_alpha 116.044
_cell_angle_beta 88.38
_cell_angle_gamma 90.024
_space_group_name_H-M_alt 'P 1'
_space_group_name_Hall 'P 1'
loop_
    _symmetry_equiv_pos_as_xyz
    x,y,z
loop_
    _atom_site_label
    _atom_site_type_symbol
    _atom_site_fract_x
    _atom_site_fract_y
    _atom_site_fract_z
    _atom_site_occupancy
    N0      N    0.33318   0.25254   0.39045   1.000
    N1      N    0.66692   0.74746   0.60959   1.000
    N2      N    0.16791   0.86325   0.60950   1.000
    N3      N    0.83212   0.13677   0.39054   1.000
    Zr4     Zr   0.99965   0.50001   0.50001   1.000
    O5      O    0.13869   0.40470   0.45921   1.000
    O6      O    0.06740   0.64617   0.53463   1.000
    O7      O    0.98030   0.63248   0.72525   1.000
    O8      O    0.86102   0.59532   0.54081   1.000
    O9      O    0.93227   0.35385   0.46539   1.000
    O10     O    0.01936   0.36753   0.27476   1.000
    Zr11    Zr   0.50002   1.00000   0.50003   1.000
    O12     O    0.43341   0.11135   0.46543   1.000
    O13     O    0.51960   0.90736   0.27471   1.000
    O14     O    0.63883   0.05355   0.45940   1.000
    O15     O    0.48047   0.09264   0.72534   1.000
    O16     O    0.56665   0.88865   0.53461   1.000
    O17     O    0.36121   0.94646   0.54066   1.000
loop_
    _geom_bond_atom_site_label_1
    _geom_bond_atom_site_label_2
    _geom_bond_distance
    _geom_bond_site_symmetry_2
    _ccdc_geom_bond_type
    Zr4    O5        2.30167  1_655   S
    N0     O5        3.35907      .   S
    Zr4    O6        2.17823  1_655   S
    N2     O6        3.19807      .   S
    Zr4    O7        3.38840      .   S
    N3     O7        7.28582      .   S
    Zr4    O8        2.29689      .   S
    N1     O8        3.35454      .   S
    Zr4    O9        2.17596      .   S
    N3     O9        3.19584      .   S
    Zr4    O10       3.38868  1_655   S
    N2     O10       7.28766      .   S
    Zr11   O12       2.17001  1_565   S
    N0     O12       3.18775      .   S
    Zr11   O13       3.39024      .   S
    N1     O13       7.28042      .   S
    Zr11   O14       2.29078  1_565   S
    N3     O14       3.34465      .   S
    Zr11   O15       3.39022  1_565   S
    N0     O15       7.28056      .   S
    Zr11   O16       2.17003      .   S
    N1     O16       3.18785      .   S
    Zr11   O17       2.29078      .   S
    N2     O17       3.34465      .   S
