# CIF file generated by openbabel 2.4.90, see http://openbabel.sf.net
data_I
_chemical_name_common ''
_cell_length_a 9.898
_cell_length_b 16.558
_cell_length_c 12.187
_cell_angle_alpha 89.965
_cell_angle_beta 89.971
_cell_angle_gamma 91.592
_space_group_name_H-M_alt 'P 1'
_space_group_name_Hall 'P 1'
loop_
    _symmetry_equiv_pos_as_xyz
    x,y,z
loop_
    _atom_site_label
    _atom_site_type_symbol
    _atom_site_fract_x
    _atom_site_fract_y
    _atom_site_fract_z
    _atom_site_occupancy
    Al0     Al   0.38229   0.93082   0.24998   1.000
    Al1     Al   0.88228   0.43084   0.24998   1.000
    Al2     Al   0.88227   0.93082   0.24998   1.000
    Al3     Al   0.11768   0.06915   0.74999   1.000
    Al4     Al   0.11768   0.56913   0.74998   1.000
    Al5     Al   0.61767   0.06915   0.74998   1.000
    Al6     Al   0.61766   0.56913   0.74999   1.000
    Al7     Al   0.24999   1.00000   0.49998   1.000
    Al8     Al   0.24999   0.49998   0.49998   1.000
    Al9     Al   0.74997   1.00000   0.49998   1.000
    Al10    Al   0.74997   0.49998   0.49998   1.000
    Al11    Al   0.24999   0.00000   0.00000   1.000
    Al12    Al   0.24999   0.49999   0.00000   1.000
    Al13    Al   0.74997   0.00000   0.99999   1.000
    Al14    Al   0.74997   0.49998   0.99997   1.000
    Al15    Al   0.38229   0.43084   0.24998   1.000
    F16     F    0.28379   0.48277   0.34695   1.000
    F17     F    0.28378   0.98276   0.34695   1.000
    F18     F    0.78377   0.48277   0.34695   1.000
    F19     F    0.78377   0.98276   0.34695   1.000
    F20     F    0.21619   0.01720   0.84694   1.000
    F21     F    0.21618   0.51719   0.84694   1.000
    F22     F    0.71617   0.01720   0.84694   1.000
    F23     F    0.71616   0.51719   0.84694   1.000
    F24     F    0.21619   0.01721   0.65301   1.000
    F25     F    0.21618   0.51720   0.65301   1.000
    F26     F    0.71617   0.01721   0.65301   1.000
    F27     F    0.71617   0.51720   0.65301   1.000
    F28     F    0.28379   0.48279   0.15302   1.000
    F29     F    0.28379   0.98277   0.15302   1.000
    F30     F    0.78377   0.48278   0.15302   1.000
    F31     F    0.78377   0.98277   0.15302   1.000
    Ts32    Ts   0.41121   0.91394   0.28480   1.000
    Ts33    Ts   0.41101   0.91382   0.21515   1.000
    Ts34    Ts   0.91120   0.41395   0.28480   1.000
    Ts35    Ts   0.91100   0.41383   0.21515   1.000
    Ts36    Ts   0.91120   0.91394   0.28480   1.000
    Ts37    Ts   0.91099   0.91381   0.21515   1.000
    Ts38    Ts   0.08896   0.08616   0.78481   1.000
    Ts39    Ts   0.08876   0.08603   0.71517   1.000
    Ts40    Ts   0.08896   0.58614   0.78481   1.000
    Ts41    Ts   0.08876   0.58602   0.71515   1.000
    Ts42    Ts   0.58894   0.08615   0.78481   1.000
    Ts43    Ts   0.58875   0.08603   0.71515   1.000
    Ts44    Ts   0.58894   0.58614   0.78481   1.000
    Ts45    Ts   0.58874   0.58602   0.71517   1.000
    Ts46    Ts   0.29978   0.98019   0.51349   1.000
    Ts47    Ts   0.21487   0.96789   0.50126   1.000
    Ts48    Ts   0.20020   0.01980   0.48645   1.000
    Ts49    Ts   0.28511   0.03210   0.49870   1.000
    Ts50    Ts   0.29978   0.48018   0.51351   1.000
    Ts51    Ts   0.21486   0.46788   0.50126   1.000
    Ts52    Ts   0.20019   0.51979   0.48645   1.000
    Ts53    Ts   0.28511   0.53209   0.49870   1.000
    Ts54    Ts   0.79976   0.98019   0.51351   1.000
    Ts55    Ts   0.71485   0.96789   0.50126   1.000
    Ts56    Ts   0.70018   0.01980   0.48645   1.000
    Ts57    Ts   0.78510   0.03210   0.49870   1.000
    Ts58    Ts   0.79976   0.48018   0.51349   1.000
    Ts59    Ts   0.71485   0.46788   0.50126   1.000
    Ts60    Ts   0.70018   0.51979   0.48645   1.000
    Ts61    Ts   0.78509   0.53209   0.49870   1.000
    Ts62    Ts   0.20019   0.01980   0.01350   1.000
    Ts63    Ts   0.28514   0.03210   0.00121   1.000
    Ts64    Ts   0.29979   0.98019   0.98646   1.000
    Ts65    Ts   0.21484   0.96789   0.99878   1.000
    Ts66    Ts   0.20019   0.51978   0.01353   1.000
    Ts67    Ts   0.28513   0.53208   0.00120   1.000
    Ts68    Ts   0.29978   0.48019   0.98646   1.000
    Ts69    Ts   0.21484   0.46789   0.99878   1.000
    Ts70    Ts   0.70018   0.01980   0.01352   1.000
    Ts71    Ts   0.78512   0.03210   0.00120   1.000
    Ts72    Ts   0.79977   0.98019   0.98645   1.000
    Ts73    Ts   0.71482   0.96789   0.99877   1.000
    Ts74    Ts   0.70017   0.51978   0.01348   1.000
    Ts75    Ts   0.78512   0.53208   0.00119   1.000
    Ts76    Ts   0.79977   0.48019   0.98644   1.000
    Ts77    Ts   0.71482   0.46789   0.99876   1.000
    Ts78    Ts   0.41122   0.41395   0.28480   1.000
    Ts79    Ts   0.41101   0.41383   0.21515   1.000
loop_
    _geom_bond_atom_site_label_1
    _geom_bond_atom_site_label_2
    _geom_bond_distance
    _geom_bond_site_symmetry_2
    _ccdc_geom_bond_type
    F28    Al15      1.77013      .   S
    F29    Al0       1.77012      .   S
    F30    Al1       1.77012      .   S
    F31    Al2       1.77013      .   S
    Al0    F17       1.77014      .   S
    Al15   F16       1.77015      .   S
    Al1    F18       1.77016      .   S
    Al2    F19       1.77016      .   S
    F24    Al3       1.77023      .   S
    F25    Al4       1.77014      .   S
    F26    Al5       1.77016      .   S
    F27    Al6       1.77023      .   S
    Al4    F21       1.77012      .   S
    Al5    F22       1.77014      .   S
    Al6    F23       1.77004      .   S
    Al3    F20       1.77005      .   S
    Al0    Ts32      0.58705      .   S
    Al0    Ts33      0.58714      .   S
    Al1    Ts34      0.58705      .   S
    Al1    Ts35      0.58714      .   S
    Al2    Ts36      0.58705      .   S
    Al2    Ts37      0.58714      .   S
    Al3    Ts38      0.58711      .   S
    Al3    Ts39      0.58705      .   S
    Al4    Ts40      0.58714      .   S
    Al4    Ts41      0.58708      .   S
    Al5    Ts42      0.58714      .   S
    Al5    Ts43      0.58708      .   S
    Al6    Ts44      0.58711      .   S
    Al6    Ts45      0.58705      .   S
    Al7    Ts46      0.62174      .   S
    Al7    Ts47      0.62730      .   S
    Al7    Ts48      0.62177  1_565   S
    Al7    Ts49      0.62716  1_565   S
    Al8    Ts50      0.62176      .   S
    Al8    Ts51      0.62716      .   S
    Al8    Ts52      0.62177      .   S
    Al8    Ts53      0.62716      .   S
    Al9    Ts54      0.62182      .   S
    Al9    Ts55      0.62730      .   S
    Al9    Ts56      0.62177  1_565   S
    Al9    Ts57      0.62716  1_565   S
    Al10   Ts58      0.62169      .   S
    Al10   Ts59      0.62716      .   S
    Al10   Ts60      0.62177      .   S
    Al10   Ts61      0.62716      .   S
    Al11   Ts62      0.62163      .   S
    Al11   Ts63      0.62722      .   S
    Al11   Ts64      0.62183  1_544   S
    Al11   Ts65      0.62738  1_544   S
    Al12   Ts66      0.62172      .   S
    Al12   Ts67      0.62722      .   S
    Al12   Ts68      0.62178  1_554   S
    Al12   Ts69      0.62724  1_554   S
    Al13   Ts70      0.62173  1_556   S
    Al13   Ts71      0.62723  1_556   S
    Al13   Ts72      0.62182  1_545   S
    Al13   Ts73      0.62739  1_545   S
    Al14   Ts74      0.62168  1_556   S
    Al14   Ts75      0.62724  1_556   S
    Al14   Ts76      0.62173      .   S
    Al14   Ts77      0.62723      .   S
    Al15   Ts78      0.58705      .   S
    Al15   Ts79      0.58714      .   S
