# CIF file generated by openbabel 2.4.90, see http://openbabel.sf.net
data_I
_chemical_name_common ''
_cell_length_a 9.898
_cell_length_b 16.558
_cell_length_c 12.187
_cell_angle_alpha 89.965
_cell_angle_beta 89.971
_cell_angle_gamma 91.592
_space_group_name_H-M_alt 'P 1'
_space_group_name_Hall 'P 1'
loop_
    _symmetry_equiv_pos_as_xyz
    x,y,z
loop_
    _atom_site_label
    _atom_site_type_symbol
    _atom_site_fract_x
    _atom_site_fract_y
    _atom_site_fract_z
    _atom_site_occupancy
    Zr0     Zr   0.38229   0.43084   0.24998   1.000
    Zr1     Zr   0.38229   0.93082   0.24998   1.000
    Zr2     Zr   0.88228   0.43084   0.24998   1.000
    Zr3     Zr   0.88227   0.93082   0.24998   1.000
    Zr4     Zr   0.11768   0.06915   0.74999   1.000
    Zr5     Zr   0.11768   0.56913   0.74998   1.000
    Zr6     Zr   0.61767   0.06915   0.74998   1.000
    Zr7     Zr   0.61766   0.56913   0.74999   1.000
    Zr8     Zr   0.24999   1.00000   0.49998   1.000
    Zr9     Zr   0.24999   0.49998   0.49998   1.000
    Zr10    Zr   0.74997   1.00000   0.49998   1.000
    Zr11    Zr   0.74997   0.49998   0.49998   1.000
    Zr12    Zr   0.24999   0.00000   0.00000   1.000
    Zr13    Zr   0.24999   0.49999   0.00000   1.000
    Zr14    Zr   0.74997   0.00000   0.99999   1.000
    Zr15    Zr   0.74997   0.49998   0.99997   1.000
    Zr16    Zr   0.28379   0.48277   0.34695   1.000
    Zr17    Zr   0.28378   0.98276   0.34695   1.000
    Zr18    Zr   0.78377   0.48277   0.34695   1.000
    Zr19    Zr   0.78377   0.98276   0.34695   1.000
    Zr20    Zr   0.21619   0.01720   0.84694   1.000
    Zr21    Zr   0.21618   0.51719   0.84694   1.000
    Zr22    Zr   0.71617   0.01720   0.84694   1.000
    Zr23    Zr   0.71616   0.51719   0.84694   1.000
    Zr24    Zr   0.21619   0.01721   0.65301   1.000
    Zr25    Zr   0.21618   0.51720   0.65301   1.000
    Zr26    Zr   0.71617   0.01721   0.65301   1.000
    Zr27    Zr   0.71617   0.51720   0.65301   1.000
    Zr28    Zr   0.28379   0.48279   0.15302   1.000
    Zr29    Zr   0.28379   0.98277   0.15302   1.000
    Zr30    Zr   0.78377   0.48278   0.15302   1.000
    Zr31    Zr   0.78377   0.98277   0.15302   1.000
    O32     O    0.33304   0.45681   0.20150   1.000
    O33     O    0.33304   0.95680   0.20150   1.000
    O34     O    0.83303   0.45681   0.20150   1.000
    O35     O    0.83302   0.95680   0.20150   1.000
    O36     O    0.33304   0.95679   0.29846   1.000
    O37     O    0.33304   0.45680   0.29846   1.000
    O38     O    0.83303   0.45680   0.29846   1.000
    O39     O    0.83302   0.95679   0.29846   1.000
    O40     O    0.16694   0.04318   0.70150   1.000
    O41     O    0.16693   0.54317   0.70149   1.000
    O42     O    0.66692   0.04318   0.70149   1.000
    O43     O    0.66691   0.54317   0.70150   1.000
    O44     O    0.16693   0.54316   0.79846   1.000
    O45     O    0.66692   0.04317   0.79846   1.000
    O46     O    0.66691   0.54316   0.79846   1.000
    O47     O    0.16694   0.04317   0.79846   1.000
    N48     N    0.49998   0.24999   0.99998   1.000
    O49     O    0.59861   0.35092   0.99907   1.000
    O50     O    0.40135   0.14907   0.00090   1.000
    O51     O    0.41233   0.36014   0.98984   1.000
    O52     O    0.46268   0.32766   0.09886   1.000
    O53     O    0.58763   0.13984   0.01013   1.000
    O54     O    0.53728   0.17232   0.90110   1.000
    N55     N    0.99997   0.74998   0.99998   1.000
    O56     O    0.09862   0.85091   0.99907   1.000
    O57     O    0.08763   0.63983   0.01014   1.000
    O58     O    0.03729   0.67231   0.90110   1.000
    O59     O    0.96266   0.82764   0.09886   1.000
    O60     O    0.90133   0.64905   0.00089   1.000
    O61     O    0.91232   0.86013   0.98983   1.000
    N62     N    0.49997   0.74998   0.49998   1.000
    O63     O    0.58763   0.63983   0.48983   1.000
    O64     O    0.53713   0.67222   0.59887   1.000
    O65     O    0.59863   0.85091   0.50094   1.000
    O66     O    0.46282   0.82774   0.40110   1.000
    O67     O    0.40132   0.64906   0.49902   1.000
    O68     O    0.41232   0.86013   0.51011   1.000
    N69     N    0.49998   0.74998   0.99997   1.000
    O70     O    0.40134   0.64905   0.00089   1.000
    O71     O    0.58762   0.63983   0.01010   1.000
    O72     O    0.59861   0.85091   0.99907   1.000
    O73     O    0.46267   0.82765   0.09886   1.000
    O74     O    0.41233   0.86013   0.98983   1.000
    O75     O    0.53728   0.67231   0.90110   1.000
    N76     N    0.99998   0.74998   0.49997   1.000
    O77     O    0.08764   0.63983   0.48983   1.000
    O78     O    0.91232   0.86013   0.51012   1.000
    O79     O    0.90131   0.64906   0.49902   1.000
    O80     O    0.09864   0.85091   0.50094   1.000
    O81     O    0.03714   0.67222   0.59886   1.000
    O82     O    0.96282   0.82774   0.40109   1.000
    N83     N    0.99998   0.24999   0.99997   1.000
    O84     O    0.03729   0.17233   0.90110   1.000
    O85     O    0.90134   0.14907   0.00089   1.000
    O86     O    0.96267   0.32766   0.09886   1.000
    O87     O    0.91232   0.36014   0.98982   1.000
    O88     O    0.08764   0.13984   0.01011   1.000
    O89     O    0.09862   0.35092   0.99907   1.000
    N90     N    0.99998   0.24999   0.49998   1.000
    O91     O    0.09864   0.35091   0.50094   1.000
    O92     O    0.90132   0.14907   0.49902   1.000
    O93     O    0.91232   0.36014   0.51011   1.000
    O94     O    0.03714   0.17223   0.59887   1.000
    O95     O    0.96282   0.32775   0.40110   1.000
    O96     O    0.08764   0.13985   0.48983   1.000
    N97     N    0.49998   0.24999   0.49998   1.000
    O98     O    0.41233   0.36014   0.51013   1.000
    O99     O    0.46283   0.32775   0.40110   1.000
    O100    O    0.59863   0.35091   0.50094   1.000
    O101    O    0.40133   0.14907   0.49902   1.000
    O102    O    0.53713   0.17223   0.59886   1.000
    O103    O    0.58763   0.13985   0.48983   1.000
loop_
    _geom_bond_atom_site_label_1
    _geom_bond_atom_site_label_2
    _geom_bond_distance
    _geom_bond_site_symmetry_2
    _ccdc_geom_bond_type
    Zr28   O32       0.88506      .   S
    Zr0    O32       0.88506      .   S
    Zr29   O33       0.88506      .   S
    Zr1    O33       0.88506      .   S
    Zr30   O34       0.88506      .   S
    Zr2    O34       0.88506      .   S
    Zr31   O35       0.88506      .   S
    Zr3    O35       0.88506      .   S
    Zr1    O36       0.88507      .   S
    Zr17   O36       0.88507      .   S
    Zr0    O37       0.88507      .   S
    Zr16   O37       0.88507      .   S
    Zr2    O38       0.88508      .   S
    Zr18   O38       0.88508      .   S
    Zr3    O39       0.88508      .   S
    Zr19   O39       0.88508      .   S
    Zr24   O40       0.88512      .   S
    Zr4    O40       0.88512      .   S
    Zr25   O41       0.88507      .   S
    Zr5    O41       0.88507      .   S
    Zr26   O42       0.88508      .   S
    Zr6    O42       0.88508      .   S
    Zr27   O43       0.88512      .   S
    Zr7    O43       0.88512      .   S
    Zr5    O44       0.88506      .   S
    Zr21   O44       0.88506      .   S
    Zr6    O45       0.88507      .   S
    Zr22   O45       0.88507      .   S
    Zr7    O46       0.88502      .   S
    Zr23   O46       0.88502      .   S
    Zr4    O47       0.88502      .   S
    Zr20   O47       0.88502      .   S
    N48    O49       1.91184      .   S
    Zr15   O49       2.85156      .   S
    N48    O50       1.91184  1_556   S
    Zr12   O50       2.85155      .   S
    N48    O51       2.04502      .   S
    Zr13   O51       2.85766  1_554   S
    N48    O52       1.80833  1_556   S
    Zr0    O52       2.64980      .   S
    N48    O53       2.04501  1_556   S
    Zr14   O53       2.85761  1_556   S
    N48    O54       1.80834      .   S
    Zr6    O54       2.64980      .   S
    N55    O56       1.91201  1_655   S
    Zr12   O56       2.85196  1_544   S
    N55    O57       2.04505  1_656   S
    Zr13   O57       2.85765      .   S
    N55    O58       1.80837  1_655   S
    Zr5    O58       2.64983      .   S
    N55    O59       1.80834  1_556   S
    Zr3    O59       2.64982      .   S
    N55    O60       1.91189  1_556   S
    Zr15   O60       2.85163  1_556   S
    N55    O61       2.04515      .   S
    Zr14   O61       2.85793  1_545   S
    N62    O63       2.04505      .   S
    Zr11   O63       2.85761      .   S
    N62    O64       1.80838      .   S
    Zr7    O64       2.64840      .   S
    N62    O65       1.91203      .   S
    Zr10   O65       2.85184      .   S
    N62    O66       1.80833      .   S
    Zr1    O66       2.64836      .   S
    N62    O67       1.91191      .   S
    Zr9    O67       2.85151      .   S
    N62    O68       2.04513      .   S
    Zr8    O68       2.85783      .   S
    N69    O70       1.91184  1_556   S
    Zr13   O70       2.85155      .   S
    N69    O71       2.04501  1_556   S
    Zr15   O71       2.85764  1_556   S
    N69    O72       1.91196      .   S
    Zr14   O72       2.85191  1_545   S
    N69    O73       1.80837  1_556   S
    Zr1    O73       2.64983      .   S
    N69    O74       2.04510      .   S
    Zr12   O74       2.85790  1_544   S
    N69    O75       1.80828      .   S
    Zr7    O75       2.64971      .   S
    N76    O77       2.04509  1_655   S
    Zr9    O77       2.85767      .   S
    N76    O78       2.04518      .   S
    Zr10   O78       2.85789      .   S
    N76    O79       1.91196      .   S
    Zr11   O79       2.85155      .   S
    N76    O80       1.91206  1_655   S
    Zr8    O80       2.85187      .   S
    N76    O81       1.80835  1_655   S
    Zr5    O81       2.64843      .   S
    N76    O82       1.80833      .   S
    Zr3    O82       2.64835      .   S
    N83    O84       1.80831  1_655   S
    Zr4    O84       2.64974      .   S
    N83    O85       1.91189  1_556   S
    Zr14   O85       2.85160  1_556   S
    N83    O86       1.80838  1_556   S
    Zr2    O86       2.64985      .   S
    N83    O87       2.04504      .   S
    Zr15   O87       2.85766      .   S
    N83    O88       2.04504  1_656   S
    Zr12   O88       2.85764      .   S
    N83    O89       1.91190  1_655   S
    Zr13   O89       2.85163  1_554   S
    N90    O91       1.91196  1_655   S
    Zr9    O91       2.85155      .   S
    N90    O92       1.91195      .   S
    Zr10   O92       2.85154  1_565   S
    N90    O93       2.04508      .   S
    Zr11   O93       2.85766      .   S
    N90    O94       1.80840  1_655   S
    Zr4    O94       2.64842      .   S
    N90    O95       1.80834      .   S
    Zr2    O95       2.64838      .   S
    N90    O96       2.04509  1_655   S
    Zr8    O96       2.85766  1_565   S
    N97    O98       2.04505      .   S
    Zr9    O98       2.85760      .   S
    N97    O99       1.80834      .   S
    Zr0    O99       2.64836      .   S
    N97    O100      1.91191      .   S
    Zr11   O100      2.85151      .   S
    N97    O101      1.91191      .   S
    Zr8    O101      2.85151  1_565   S
    N97    O102      1.80831      .   S
    Zr6    O102      2.64837      .   S
    N97    O103      2.04505      .   S
    Zr10   O103      2.85761  1_565   S
