# CIF file generated by openbabel 2.4.90, see http://openbabel.sf.net
data_I
_chemical_name_common ''
_cell_length_a 15.885
_cell_length_b 18.338
_cell_length_c 19.602
_cell_angle_alpha 92.926
_cell_angle_beta 114.074
_cell_angle_gamma 82.713
_space_group_name_H-M_alt 'P 1'
_space_group_name_Hall 'P 1'
loop_
    _symmetry_equiv_pos_as_xyz
    x,y,z
loop_
    _atom_site_label
    _atom_site_type_symbol
    _atom_site_fract_x
    _atom_site_fract_y
    _atom_site_fract_z
    _atom_site_occupancy
    H0      H    0.02785   0.11661   0.12018   1.000
    H1      H    0.02786   0.11661   0.62017   1.000
    H2      H    0.02786   0.61660   0.12010   1.000
    H3      H    0.02786   0.61660   0.62017   1.000
    H4      H    0.52785   0.11661   0.12010   1.000
    H5      H    0.52785   0.11661   0.62017   1.000
    H6      H    0.52785   0.61660   0.12010   1.000
    H7      H    0.52785   0.61660   0.62017   1.000
    H8      H    0.46479   0.04724   0.06275   1.000
    H9      H    0.46479   0.04724   0.56273   1.000
    H10     H    0.46479   0.54723   0.06275   1.000
    H11     H    0.46479   0.54723   0.56273   1.000
    H12     H    0.96478   0.04724   0.06270   1.000
    H13     H    0.96478   0.04724   0.56273   1.000
    H14     H    0.96478   0.54723   0.06270   1.000
    H15     H    0.96478   0.54723   0.56273   1.000
    H16     H    0.05553   0.04262   0.23417   1.000
    H17     H    0.05554   0.04262   0.73416   1.000
    H18     H    0.05553   0.54261   0.23417   1.000
    H19     H    0.05554   0.54260   0.73416   1.000
    H20     H    0.55553   0.04262   0.23417   1.000
    H21     H    0.55554   0.04262   0.73416   1.000
    H22     H    0.55553   0.54261   0.23417   1.000
    H23     H    0.55554   0.54260   0.73416   1.000
    H24     H    0.00156   0.47042   0.17614   1.000
    H25     H    0.00157   0.47042   0.67613   1.000
    H26     H    0.00157   0.97041   0.17614   1.000
    H27     H    0.00157   0.97040   0.67613   1.000
    H28     H    0.50156   0.47042   0.17615   1.000
    H29     H    0.50157   0.47042   0.67613   1.000
    H30     H    0.50157   0.97040   0.17615   1.000
    H31     H    0.50157   0.97040   0.67613   1.000
    H32     H    0.09143   0.38355   0.11970   1.000
    H33     H    0.09144   0.38355   0.61960   1.000
    H34     H    0.09143   0.88353   0.11970   1.000
    H35     H    0.09144   0.88353   0.61960   1.000
    H36     H    0.59143   0.38355   0.11970   1.000
    H37     H    0.59143   0.38355   0.61968   1.000
    H38     H    0.59143   0.88354   0.11900   1.000
    H39     H    0.59143   0.88354   0.61968   1.000
    H40     H    0.09702   0.45327   0.06269   1.000
    H41     H    0.09702   0.45327   0.56267   1.000
    H42     H    0.09702   0.95326   0.06269   1.000
    H43     H    0.09703   0.95326   0.56267   1.000
    H44     H    0.59702   0.45328   0.06269   1.000
    H45     H    0.59702   0.45328   0.56267   1.000
    H46     H    0.59702   0.95327   0.06269   1.000
    H47     H    0.59702   0.95326   0.56267   1.000
    H48     H    0.17845   0.45685   0.23412   1.000
    H49     H    0.17845   0.45685   0.73411   1.000
    H50     H    0.17845   0.95684   0.23412   1.000
    H51     H    0.17846   0.95683   0.73411   1.000
    H52     H    0.67845   0.45685   0.23412   1.000
    H53     H    0.67845   0.45685   0.73410   1.000
    H54     H    0.67845   0.95684   0.23412   1.000
    H55     H    0.67846   0.95684   0.73410   1.000
    H56     H    0.17434   0.02939   0.17650   1.000
    H57     H    0.17434   0.02939   0.67640   1.000
    H58     H    0.17434   0.52938   0.17650   1.000
    H59     H    0.17434   0.52938   0.67648   1.000
    H60     H    0.67433   0.02940   0.17650   1.000
    H61     H    0.67434   0.02939   0.67648   1.000
    H62     H    0.67434   0.52938   0.17650   1.000
    H63     H    0.67434   0.52938   0.67648   1.000
    H64     H    0.47222   0.38335   0.37980   1.000
    H65     H    0.47222   0.38335   0.87979   1.000
    H66     H    0.47222   0.88333   0.37980   1.000
    H67     H    0.47223   0.88333   0.87979   1.000
    H68     H    0.97221   0.38335   0.37980   1.000
    H69     H    0.97222   0.38335   0.87979   1.000
    H70     H    0.97222   0.88333   0.37980   1.000
    H71     H    0.97222   0.88333   0.87979   1.000
    H72     H    0.03529   0.45271   0.43725   1.000
    H73     H    0.03529   0.45271   0.93723   1.000
    H74     H    0.03529   0.95270   0.43720   1.000
    H75     H    0.03530   0.95270   0.93723   1.000
    C76     C    0.63678   0.98425   0.68017   1.000
    C77     C    0.09906   0.39461   0.37126   1.000
    C78     C    0.09906   0.39461   0.87125   1.000
    C79     C    0.09906   0.89460   0.37126   1.000
    H80     H    0.53528   0.45271   0.43724   1.000
    H81     H    0.53528   0.45271   0.93723   1.000
    H82     H    0.53528   0.95270   0.43724   1.000
    H83     H    0.53529   0.95270   0.93723   1.000
    H84     H    0.44454   0.45734   0.26582   1.000
    H85     H    0.44455   0.45734   0.76580   1.000
    H86     H    0.44454   0.95733   0.26582   1.000
    H87     H    0.44455   0.95733   0.76580   1.000
    H88     H    0.94454   0.45734   0.26582   1.000
    H89     H    0.94455   0.45734   0.76580   1.000
    H90     H    0.94454   0.95733   0.26582   1.000
    H91     H    0.94455   0.95733   0.76580   1.000
    H92     H    0.49851   0.02954   0.32385   1.000
    H93     H    0.49852   0.02954   0.82383   1.000
    H94     H    0.49851   0.52953   0.32385   1.000
    H95     H    0.49852   0.52953   0.82380   1.000
    H96     H    0.99851   0.02954   0.32385   1.000
    H97     H    0.99852   0.02954   0.82384   1.000
    H98     H    0.99851   0.52952   0.32385   1.000
    H99     H    0.99852   0.52952   0.82384   1.000
    H100    H    0.40865   0.11641   0.38030   1.000
    H101    H    0.40865   0.11640   0.88020   1.000
    H102    H    0.40865   0.61639   0.38030   1.000
    H103    H    0.40865   0.61639   0.88028   1.000
    H104    H    0.90864   0.11641   0.38000   1.000
    H105    H    0.90864   0.11641   0.88028   1.000
    H106    H    0.90864   0.61640   0.38029   1.000
    H107    H    0.90865   0.61640   0.88028   1.000
    N108    N    0.25975   0.12039   0.12292   1.000
    N109    N    0.25975   0.12040   0.62291   1.000
    N110    N    0.25975   0.62038   0.12292   1.000
    N111    N    0.25975   0.62038   0.62291   1.000
    N112    N    0.75974   0.12040   0.12292   1.000
    H113    H    0.40305   0.04668   0.43730   1.000
    H114    H    0.40306   0.04667   0.93729   1.000
    H115    H    0.40306   0.54666   0.43730   1.000
    H116    H    0.40306   0.54666   0.93729   1.000
    H117    H    0.90305   0.04668   0.43730   1.000
    H118    H    0.90306   0.04668   0.93729   1.000
    H119    H    0.90305   0.54667   0.43730   1.000
    H120    H    0.90306   0.54667   0.93729   1.000
    H121    H    0.32163   0.04311   0.26587   1.000
    H122    H    0.32163   0.04311   0.76586   1.000
    H123    H    0.32163   0.54310   0.26587   1.000
    H124    H    0.32163   0.54310   0.76586   1.000
    H125    H    0.82163   0.04311   0.26587   1.000
    H126    H    0.82163   0.04311   0.76585   1.000
    H127    H    0.82163   0.54310   0.26587   1.000
    H128    H    0.82163   0.54310   0.76585   1.000
    H129    H    0.32574   0.47056   0.32349   1.000
    H130    H    0.32574   0.47056   0.82347   1.000
    H131    H    0.32574   0.97055   0.32349   1.000
    H132    H    0.32574   0.97055   0.82347   1.000
    H133    H    0.82573   0.47057   0.32349   1.000
    H134    H    0.82574   0.47057   0.82347   1.000
    H135    H    0.82574   0.97055   0.32349   1.000
    H136    H    0.82574   0.97055   0.82347   1.000
    C137    C    0.40102   0.10534   0.12873   1.000
    C138    C    0.40103   0.10534   0.62872   1.000
    C139    C    0.40102   0.60533   0.12873   1.000
    C140    C    0.40103   0.60533   0.62872   1.000
    C141    C    0.90101   0.10534   0.12873   1.000
    C142    C    0.90101   0.10534   0.62871   1.000
    C143    C    0.90101   0.60533   0.12873   1.000
    C144    C    0.90102   0.60533   0.62871   1.000
    C145    C    0.48584   0.07267   0.11840   1.000
    C146    C    0.48584   0.07267   0.61845   1.000
    C147    C    0.48584   0.57266   0.11840   1.000
    C148    C    0.48584   0.57265   0.61845   1.000
    C149    C    0.98582   0.07267   0.11846   1.000
    C150    C    0.98583   0.07267   0.61845   1.000
    C151    C    0.98583   0.57266   0.11846   1.000
    C152    C    0.98583   0.57265   0.61845   1.000
    C153    C    0.04298   0.01553   0.18014   1.000
    C154    C    0.04298   0.01553   0.68012   1.000
    C155    C    0.04298   0.51552   0.18014   1.000
    C156    C    0.04298   0.51552   0.68012   1.000
    C157    C    0.54298   0.01553   0.18014   1.000
    C158    C    0.54298   0.01553   0.68012   1.000
    C159    C    0.54298   0.51552   0.18014   1.000
    C160    C    0.54298   0.51552   0.68012   1.000
    C161    C    0.22702   0.39475   0.12859   1.000
    C162    C    0.22702   0.39475   0.62858   1.000
    C163    C    0.22702   0.89474   0.12859   1.000
    C164    C    0.22702   0.89474   0.62858   1.000
    C165    C    0.72701   0.39475   0.12859   1.000
    C166    C    0.72702   0.39475   0.62858   1.000
    C167    C    0.72701   0.89474   0.12859   1.000
    C168    C    0.72702   0.89474   0.62858   1.000
    C169    C    0.13187   0.42750   0.11829   1.000
    C170    C    0.13187   0.42750   0.61820   1.000
    C171    C    0.13187   0.92749   0.11829   1.000
    C172    C    0.13187   0.92749   0.61820   1.000
    C173    C    0.63186   0.42751   0.11829   1.000
    C174    C    0.63187   0.42750   0.61827   1.000
    C175    C    0.63187   0.92749   0.11829   1.000
    C176    C    0.63187   0.92749   0.61827   1.000
    C177    C    0.13678   0.48426   0.18019   1.000
    C178    C    0.13678   0.48426   0.68017   1.000
    C179    C    0.13678   0.98425   0.18019   1.000
    C180    C    0.13678   0.98425   0.68017   1.000
    C181    C    0.63678   0.48426   0.18018   1.000
    C182    C    0.63678   0.48426   0.68017   1.000
    C183    C    0.63678   0.98425   0.18018   1.000
    C184    C    0.09907   0.89460   0.87125   1.000
    C185    C    0.59905   0.39461   0.37126   1.000
    C186    C    0.59905   0.39461   0.87125   1.000
    C187    C    0.59905   0.89460   0.37126   1.000
    C188    C    0.59906   0.89460   0.87125   1.000
    C189    C    0.01424   0.42729   0.38153   1.000
    C190    C    0.01425   0.42729   0.88151   1.000
    C191    C    0.01425   0.92727   0.38153   1.000
    C192    C    0.01425   0.92727   0.88151   1.000
    C193    C    0.51423   0.42729   0.38150   1.000
    C194    C    0.51424   0.42729   0.88151   1.000
    C195    C    0.51424   0.92727   0.38150   1.000
    C196    C    0.51424   0.92727   0.88151   1.000
    C197    C    0.45710   0.48443   0.31980   1.000
    C198    C    0.45710   0.48443   0.81984   1.000
    C199    C    0.45710   0.98441   0.31985   1.000
    C200    C    0.45710   0.98441   0.81984   1.000
    C201    C    0.95710   0.48443   0.31986   1.000
    C202    C    0.95710   0.48443   0.81984   1.000
    C203    C    0.95710   0.98441   0.31980   1.000
    C204    C    0.95710   0.98441   0.81984   1.000
    C205    C    0.27306   0.10520   0.37140   1.000
    C206    C    0.27306   0.10520   0.87139   1.000
    C207    C    0.27306   0.60519   0.37140   1.000
    C208    C    0.27307   0.60519   0.87139   1.000
    C209    C    0.77306   0.10521   0.37140   1.000
    C210    C    0.77306   0.10520   0.87138   1.000
    C211    C    0.77306   0.60519   0.37140   1.000
    C212    C    0.77306   0.60519   0.87138   1.000
    C213    C    0.36821   0.07245   0.38170   1.000
    C214    C    0.36821   0.07245   0.88169   1.000
    C215    C    0.36821   0.57244   0.38170   1.000
    C216    C    0.36821   0.57244   0.88169   1.000
    C217    C    0.86820   0.07245   0.38170   1.000
    C218    C    0.86821   0.07245   0.88169   1.000
    C219    C    0.86821   0.57244   0.38170   1.000
    C220    C    0.86821   0.57244   0.88169   1.000
    C221    C    0.36330   0.01570   0.31981   1.000
    C222    C    0.36330   0.01569   0.81979   1.000
    C223    C    0.36330   0.51568   0.31981   1.000
    C224    C    0.36330   0.51568   0.81979   1.000
    C225    C    0.86329   0.01570   0.31980   1.000
    C226    C    0.86330   0.01570   0.81979   1.000
    C227    C    0.86330   0.51569   0.31980   1.000
    C228    C    0.86330   0.51568   0.81979   1.000
    N229    N    0.30977   0.16461   0.17436   1.000
    N230    N    0.30977   0.16461   0.67435   1.000
    N231    N    0.30977   0.66460   0.17436   1.000
    N232    N    0.30977   0.66460   0.67435   1.000
    N233    N    0.80976   0.16462   0.17436   1.000
    N234    N    0.80976   0.16462   0.67435   1.000
    N235    N    0.80976   0.66460   0.17436   1.000
    N236    N    0.80976   0.66460   0.67435   1.000
    N237    N    0.75974   0.12040   0.62290   1.000
    N238    N    0.75974   0.62039   0.12292   1.000
    N239    N    0.75974   0.62039   0.62290   1.000
    N240    N    0.31604   0.08272   0.09342   1.000
    N241    N    0.31604   0.08272   0.59341   1.000
    N242    N    0.31604   0.58270   0.09342   1.000
    N243    N    0.31604   0.58270   0.59341   1.000
    N244    N    0.81603   0.08272   0.09342   1.000
    N245    N    0.81603   0.08272   0.59340   1.000
    N246    N    0.81603   0.58271   0.09340   1.000
    N247    N    0.81603   0.58271   0.59340   1.000
    N248    N    0.39842   0.15670   0.17946   1.000
    N249    N    0.39842   0.15670   0.67940   1.000
    N250    N    0.39842   0.65668   0.17946   1.000
    N251    N    0.39842   0.65668   0.67940   1.000
    N252    N    0.89841   0.15670   0.17940   1.000
    N253    N    0.89841   0.15670   0.67944   1.000
    N254    N    0.89841   0.65669   0.17946   1.000
    N255    N    0.89841   0.65669   0.67944   1.000
    N256    N    0.36420   0.33533   0.17438   1.000
    N257    N    0.36420   0.33533   0.67436   1.000
    N258    N    0.36420   0.83531   0.17438   1.000
    N259    N    0.36420   0.83531   0.67436   1.000
    N260    N    0.86419   0.33533   0.17430   1.000
    N261    N    0.86419   0.33533   0.67436   1.000
    N262    N    0.86419   0.83531   0.17437   1.000
    N263    N    0.86420   0.83531   0.67436   1.000
    N264    N    0.36248   0.37953   0.12290   1.000
    N265    N    0.36249   0.37953   0.62288   1.000
    N266    N    0.36249   0.87952   0.12290   1.000
    N267    N    0.36249   0.87952   0.62288   1.000
    N268    N    0.86248   0.37953   0.12289   1.000
    N269    N    0.86248   0.37954   0.62288   1.000
    N270    N    0.86248   0.87952   0.12200   1.000
    N271    N    0.86249   0.87952   0.62288   1.000
    N272    N    0.27653   0.41732   0.09331   1.000
    N273    N    0.27654   0.41732   0.59329   1.000
    N274    N    0.27653   0.91731   0.09331   1.000
    N275    N    0.27654   0.91731   0.59329   1.000
    N276    N    0.77653   0.41732   0.09330   1.000
    N277    N    0.77653   0.41732   0.59329   1.000
    N278    N    0.77653   0.91731   0.09330   1.000
    N279    N    0.77653   0.91731   0.59329   1.000
    N280    N    0.28065   0.34336   0.17941   1.000
    N281    N    0.28065   0.34336   0.67940   1.000
    N282    N    0.28065   0.84335   0.17940   1.000
    N283    N    0.28065   0.84335   0.67940   1.000
    N284    N    0.78064   0.34337   0.17941   1.000
    N285    N    0.78065   0.34336   0.67940   1.000
    N286    N    0.78065   0.84335   0.17941   1.000
    N287    N    0.78065   0.84335   0.67940   1.000
    N288    N    0.19031   0.33534   0.32563   1.000
    N289    N    0.19032   0.33534   0.82562   1.000
    N290    N    0.19031   0.83532   0.32563   1.000
    N291    N    0.19032   0.83532   0.82562   1.000
    N292    N    0.69030   0.33534   0.32563   1.000
    N293    N    0.69031   0.33534   0.82560   1.000
    N294    N    0.69030   0.83533   0.32563   1.000
    N295    N    0.69031   0.83533   0.82561   1.000
    N296    N    0.24033   0.37956   0.37707   1.000
    N297    N    0.24034   0.37956   0.87706   1.000
    N298    N    0.24034   0.87954   0.37707   1.000
    N299    N    0.24034   0.87954   0.87706   1.000
    N300    N    0.74032   0.37956   0.37707   1.000
    N301    N    0.74033   0.37956   0.87705   1.000
    N302    N    0.74032   0.87955   0.37707   1.000
    N303    N    0.74033   0.87955   0.87705   1.000
    N304    N    0.18405   0.41723   0.40657   1.000
    N305    N    0.18405   0.41723   0.90656   1.000
    N306    N    0.18405   0.91722   0.40657   1.000
    N307    N    0.18405   0.91722   0.90656   1.000
    N308    N    0.68403   0.41724   0.40657   1.000
    N309    N    0.68404   0.41724   0.90656   1.000
    N310    N    0.68404   0.91722   0.40657   1.000
    N311    N    0.68404   0.91723   0.90650   1.000
    N312    N    0.10166   0.34325   0.32054   1.000
    N313    N    0.10167   0.34325   0.82052   1.000
    N314    N    0.10167   0.84324   0.32050   1.000
    N315    N    0.10167   0.84324   0.82052   1.000
    N316    N    0.60165   0.34325   0.32053   1.000
    N317    N    0.60166   0.34325   0.82052   1.000
    N318    N    0.60166   0.84324   0.32053   1.000
    N319    N    0.60166   0.84324   0.82052   1.000
    N320    N    0.13588   0.16462   0.32562   1.000
    N321    N    0.13588   0.16462   0.82561   1.000
    N322    N    0.13588   0.66461   0.32562   1.000
    N323    N    0.13589   0.66461   0.82561   1.000
    N324    N    0.63587   0.16463   0.32562   1.000
    N325    N    0.63588   0.16463   0.82560   1.000
    N326    N    0.63588   0.66461   0.32562   1.000
    N327    N    0.63588   0.66461   0.82560   1.000
    N328    N    0.13759   0.12042   0.37710   1.000
    N329    N    0.13760   0.12042   0.87709   1.000
    N330    N    0.13760   0.62040   0.37710   1.000
    N331    N    0.13760   0.62041   0.87709   1.000
    N332    N    0.63759   0.12042   0.37710   1.000
    N333    N    0.63760   0.12042   0.87709   1.000
    N334    N    0.63759   0.62040   0.37710   1.000
    N335    N    0.63760   0.62041   0.87709   1.000
    N336    N    0.22355   0.08263   0.40669   1.000
    N337    N    0.22355   0.08263   0.90668   1.000
    N338    N    0.22355   0.58262   0.40669   1.000
    N339    N    0.22355   0.58262   0.90668   1.000
    N340    N    0.72354   0.08263   0.40669   1.000
    N341    N    0.72355   0.08263   0.90660   1.000
    N342    N    0.72355   0.58262   0.40669   1.000
    N343    N    0.72355   0.58262   0.90660   1.000
    N344    N    0.21943   0.15659   0.32058   1.000
    N345    N    0.21943   0.15659   0.82057   1.000
    N346    N    0.21943   0.65657   0.32058   1.000
    N347    N    0.21943   0.65657   0.82057   1.000
    N348    N    0.71942   0.15659   0.32058   1.000
    N349    N    0.71942   0.15659   0.82056   1.000
    N350    N    0.71942   0.65658   0.32058   1.000
    N351    N    0.71943   0.65658   0.82050   1.000
loop_
    _geom_bond_atom_site_label_1
    _geom_bond_atom_site_label_2
    _geom_bond_distance
    _geom_bond_site_symmetry_2
    _ccdc_geom_bond_type
    H40    C169      1.10072      .   S
    H42    C171      1.10072      .   S
    H46    C175      1.10074      .   S
    H44    C173      1.10074      .   S
    H14    C151      1.10148      .   S
    H12    C149      1.10148      .   S
    H8     C145      1.09966      .   S
    H10    C147      1.09966      .   S
    N278   N270      1.35424      .   S
    N278   C167      1.35066      .   S
    N276   N268      1.35488      .   S
    N276   C165      1.35066      .   S
    N272   N264      1.35488      .   S
    N272   C161      1.35051      .   S
    N274   N266      1.35488      .   S
    N274   C163      1.35051      .   S
    N246   N238      1.35510      .   S
    N246   C143      1.35065      .   S
    N244   N112      1.35485      .   S
    N244   C141      1.35061      .   S
    N242   N110      1.35484      .   S
    N242   C139      1.35061      .   S
    N240   N108      1.35484      .   S
    N240   C137      1.35061      .   S
    C173   H36       1.10054      .   S
    C173   C165      1.48964      .   S
    C173   C181      1.54130      .   S
    C169   H32       1.10053      .   S
    C169   C161      1.48965      .   S
    C169   C177      1.54146      .   S
    C171   H34       1.10054      .   S
    C171   C163      1.48965      .   S
    C171   C179      1.54146      .   S
    C175   H38       1.09649      .   S
    C175   C167      1.48965      .   S
    C175   C183      1.54130      .   S
    C147   H6        1.10058      .   S
    C147   C139      1.49016      .   S
    C147   C159      1.54220      .   S
    C145   H4        1.10058      .   S
    C145   C137      1.49015      .   S
    C145   C157      1.54220      .   S
    C151   H2        1.10108  1_655   S
    C151   C143      1.48961      .   S
    C151   C155      1.54156  1_655   S
    C149   H0        1.10067  1_655   S
    C149   C141      1.48959      .   S
    C149   C153      1.54156  1_655   S
    N270   N262      1.32980      .   S
    N268   N260      1.31489      .   S
    N266   N258      1.31599      .   S
    N264   N256      1.31599      .   S
    N108   N229      1.31602      .   S
    N110   N231      1.31602      .   S
    N112   N233      1.31600      .   S
    N238   N235      1.31601      .   S
    C167   N286      1.34383      .   S
    C165   N284      1.34384      .   S
    C163   N282      1.34373      .   S
    C161   N280      1.34383      .   S
    C137   N248      1.34370      .   S
    C143   N254      1.34370      .   S
    C141   N252      1.34287      .   S
    C139   N250      1.34370      .   S
    N260   N284      1.36027      .   S
    N235   N254      1.35974      .   S
    N233   N252      1.36012      .   S
    N231   N250      1.35972      .   S
    N229   N248      1.35970      .   S
    N262   N286      1.35964      .   S
    N258   N282      1.35945      .   S
    N256   N280      1.35954      .   S
    H24    C155      1.10103      .   S
    H26    C153      1.10139  1_565   S
    H30    C157      1.10143  1_565   S
    H28    C159      1.10106      .   S
    H60    C183      1.10135  1_545   S
    H58    C177      1.10105      .   S
    H56    C179      1.10142  1_545   S
    H62    C181      1.10099      .   S
    C159   C181      1.52678      .   S
    C159   H22       1.09877      .   S
    C157   C183      1.52695  1_545   S
    C157   H20       1.09877      .   S
    C155   C177      1.52672      .   S
    C155   H18       1.09878      .   S
    C153   C179      1.52690  1_545   S
    C153   H16       1.09878      .   S
    C183   H54       1.09893      .   S
    C181   H52       1.09893      .   S
    C179   H50       1.09878      .   S
    C177   H48       1.09878      .   S
    H90    C203      1.09792      .   S
    H88    C201      1.09893      .   S
    H84    C197      1.09790      .   S
    H86    C199      1.09875      .   S
    H121   C221      1.09894      .   S
    H127   C227      1.09879      .   S
    H125   C225      1.09880      .   S
    H123   C223      1.09894      .   S
    C227   C201      1.52668      .   S
    C227   H133      1.10108      .   S
    C227   C219      1.54144      .   S
    C225   C203      1.52727  1_545   S
    C225   H135      1.10144  1_545   S
    C225   C217      1.54143      .   S
    C197   C223      1.52717      .   S
    C197   H94       1.10084      .   S
    C197   C193      1.54177      .   S
    C203   H96       1.10120  1_565   S
    C203   C191      1.54215  1_655   S
    C223   H129      1.10101      .   S
    C223   C215      1.54127      .   S
    C221   C199      1.52697  1_545   S
    C221   H131      1.10137  1_545   S
    C221   C213      1.54127      .   S
    C199   H92       1.10142  1_565   S
    C199   C195      1.54120      .   S
    C201   H98       1.10108      .   S
    C201   C189      1.54147  1_655   S
    N314   N290      1.35950      .   S
    N314   C79       1.34412      .   S
    N316   N292      1.35970      .   S
    N316   C185      1.34371      .   S
    N318   N294      1.35972      .   S
    N318   C187      1.34370      .   S
    N312   N288      1.35977      .   S
    N312   C77       1.34358      .   S
    N348   N324      1.35962      .   S
    N348   C209      1.34384      .   S
    N346   N322      1.35962      .   S
    N346   C207      1.34384      .   S
    N350   N326      1.35962      .   S
    N350   C211      1.34386      .   S
    N344   N320      1.35964      .   S
    N344   C205      1.34384      .   S
    N322   N330      1.31596      .   S
    N320   N328      1.31595      .   S
    N326   N334      1.31596      .   S
    N324   N332      1.31595      .   S
    N292   N300      1.31604      .   S
    N288   N296      1.31603      .   S
    N290   N298      1.31604      .   S
    N294   N302      1.31605      .   S
    C77    C189      1.48962      .   S
    C77    N304      1.35061      .   S
    C79    C191      1.48963      .   S
    C79    N306      1.35061      .   S
    C185   C193      1.48932      .   S
    C185   N308      1.35061      .   S
    C187   C195      1.48932      .   S
    C187   N310      1.35061      .   S
    C207   C215      1.48963      .   S
    C207   N338      1.35062      .   S
    C205   C213      1.48964      .   S
    C205   N336      1.35062      .   S
    C211   C219      1.48963      .   S
    C211   N342      1.35061      .   S
    C209   C217      1.48964      .   S
    C209   N340      1.35062      .   S
    N298   N306      1.35483      .   S
    N302   N310      1.35482      .   S
    N300   N308      1.35482      .   S
    N296   N304      1.35484      .   S
    N328   N336      1.35487      .   S
    N334   N342      1.35488      .   S
    N332   N340      1.35489      .   S
    N330   N338      1.35487      .   S
    H70    C191      1.10064  1_655   S
    H68    C189      1.10062  1_655   S
    H66    C195      1.10060      .   S
    H64    C193      1.10062      .   S
    H104   C217      1.10226      .   S
    H106   C219      1.10053      .   S
    H100   C213      1.10049      .   S
    H102   C215      1.10049      .   S
    C195   H82       1.10114      .   S
    C193   H80       1.10113      .   S
    C189   H72       1.10080      .   S
    C191   H74       1.09997      .   S
    C219   H119      1.10075      .   S
    C217   H117      1.10075      .   S
    C215   H115      1.10075      .   S
    C213   H113      1.10076      .   S
    H41    C170      1.09962      .   S
    H43    C172      1.09962      .   S
    H45    C174      1.10074      .   S
    H47    C176      1.10074      .   S
    H15    C152      1.10081      .   S
    H9     C146      1.10082      .   S
    H13    C150      1.10082      .   S
    H11    C148      1.10081      .   S
    N275   N267      1.35488      .   S
    N275   C164      1.35066      .   S
    N277   N269      1.35488      .   S
    N277   C166      1.35067      .   S
    N273   N265      1.35488      .   S
    N273   C162      1.35067      .   S
    N279   N271      1.35487      .   S
    N279   C168      1.35067      .   S
    N245   N237      1.35483      .   S
    N245   C142      1.35060      .   S
    N247   N239      1.35485      .   S
    N247   C144      1.35060      .   S
    N241   N109      1.35484      .   S
    N241   C138      1.35061      .   S
    N243   N111      1.35484      .   S
    N243   C140      1.35061      .   S
    C170   H33       1.10047      .   S
    C170   C162      1.48925      .   S
    C170   C178      1.54247      .   S
    C172   H35       1.10046      .   S
    C172   C164      1.48926      .   S
    C172   C180      1.54246      .   S
    C176   H39       1.10054      .   S
    C176   C168      1.48960      .   S
    C176   C76       1.54144      .   S
    C174   H37       1.10054      .   S
    C174   C166      1.48960      .   S
    C174   C182      1.54144      .   S
    C150   H1        1.10067  1_655   S
    C150   C142      1.48950      .   S
    C150   C154      1.54144  1_655   S
    C148   H7        1.10048      .   S
    C148   C140      1.48959      .   S
    C148   C160      1.54140      .   S
    C146   H5        1.10048      .   S
    C146   C138      1.48959      .   S
    C146   C158      1.54141      .   S
    C152   H3        1.10068  1_655   S
    C152   C144      1.48950      .   S
    C152   C156      1.54144  1_655   S
    N265   N257      1.31599      .   S
    N269   N261      1.31600      .   S
    N271   N263      1.31599      .   S
    N267   N259      1.31599      .   S
    N239   N236      1.31610      .   S
    N237   N234      1.31611      .   S
    N111   N232      1.31601      .   S
    N109   N230      1.31602      .   S
    C168   N287      1.34384      .   S
    C166   N285      1.34385      .   S
    C162   N281      1.34384      .   S
    C164   N283      1.34385      .   S
    C144   N255      1.34370      .   S
    C142   N253      1.34368      .   S
    C140   N251      1.34299      .   S
    C138   N249      1.34299      .   S
    N236   N255      1.35979      .   S
    N232   N251      1.36006      .   S
    N234   N253      1.35980      .   S
    N230   N249      1.36004      .   S
    N263   N287      1.35965      .   S
    N261   N285      1.35965      .   S
    N257   N281      1.35965      .   S
    N259   N283      1.35965      .   S
    H31    C158      1.10144  1_565   S
    H29    C160      1.10108      .   S
    H27    C154      1.10145  1_565   S
    H25    C156      1.10108      .   S
    H57    C180      1.10193  1_545   S
    H63    C182      1.10106      .   S
    H61    C76       1.10142  1_545   S
    H59    C178      1.10105      .   S
    C158   C76       1.52687  1_545   S
    C158   H21       1.09894      .   S
    C156   C178      1.52673      .   S
    C156   H19       1.09894      .   S
    C154   C180      1.52689  1_545   S
    C154   H17       1.09894      .   S
    C160   C182      1.52671      .   S
    C160   H23       1.09893      .   S
    C178   H49       1.09893      .   S
    C180   H51       1.09893      .   S
    C76    H55       1.09880      .   S
    C182   H53       1.09879      .   S
    H87    C200      1.09893      .   S
    H89    C202      1.09894      .   S
    H85    C198      1.09893      .   S
    H91    C204      1.09893      .   S
    H128   C228      1.09894      .   S
    H126   C226      1.09894      .   S
    H124   C224      1.09881      .   S
    H122   C222      1.09881      .   S
    C226   C204      1.52692  1_545   S
    C226   H136      1.10138  1_545   S
    C226   C218      1.54144      .   S
    C228   C202      1.52673      .   S
    C228   H134      1.10100      .   S
    C228   C220      1.54144      .   S
    C222   C200      1.52689  1_545   S
    C222   H132      1.10137  1_545   S
    C222   C214      1.54141      .   S
    C224   C198      1.52672      .   S
    C224   H130      1.10100      .   S
    C224   C216      1.54142      .   S
    C198   H95       1.10121      .   S
    C198   C194      1.54143      .   S
    C200   H93       1.10145  1_565   S
    C200   C196      1.54143      .   S
    C202   H99       1.10103      .   S
    C202   C190      1.54146  1_655   S
    C204   H97       1.10141  1_565   S
    C204   C192      1.54145  1_655   S
    N351   N327      1.36017      .   S
    N351   C212      1.34446      .   S
    N319   N295      1.35977      .   S
    N319   C188      1.34371      .   S
    N313   N289      1.35972      .   S
    N313   C78       1.34370      .   S
    N317   N293      1.35984      .   S
    N317   C186      1.34370      .   S
    N315   N291      1.35970      .   S
    N315   C184      1.34371      .   S
    N349   N325      1.35960      .   S
    N349   C210      1.34384      .   S
    N347   N323      1.35964      .   S
    N347   C208      1.34385      .   S
    N345   N321      1.35962      .   S
    N345   C206      1.34384      .   S
    N325   N333      1.31611      .   S
    N327   N335      1.31609      .   S
    N293   N301      1.31615      .   S
    N295   N303      1.31604      .   S
    N323   N331      1.31595      .   S
    N321   N329      1.31593      .   S
    N291   N299      1.31603      .   S
    N289   N297      1.31604      .   S
    C186   C194      1.48953      .   S
    C186   N309      1.35062      .   S
    C184   C192      1.48953      .   S
    C184   N307      1.35061      .   S
    C188   C196      1.48952      .   S
    C188   N311      1.35051      .   S
    C78    C190      1.48954      .   S
    C78    N305      1.35062      .   S
    C212   C220      1.48959      .   S
    C212   N343      1.34955      .   S
    C210   C218      1.48957      .   S
    C210   N341      1.34956      .   S
    C208   C216      1.48963      .   S
    C208   N339      1.35061      .   S
    C206   C214      1.48963      .   S
    C206   N337      1.35061      .   S
    N301   N309      1.35497      .   S
    N303   N311      1.35419      .   S
    N299   N307      1.35485      .   S
    N297   N305      1.35484      .   S
    N329   N337      1.35487      .   S
    N331   N339      1.35488      .   S
    N333   N341      1.35481      .   S
    N335   N343      1.35482      .   S
    H71    C192      1.10069  1_655   S
    H69    C190      1.10069  1_655   S
    H67    C196      1.10049      .   S
    H65    C194      1.10049      .   S
    H101   C214      1.10102      .   S
    H107   C220      1.10054      .   S
    H103   C216      1.10054      .   S
    H105   C218      1.10054      .   S
    C192   H75       1.10080      .   S
    C190   H73       1.10080      .   S
    C194   H81       1.10080      .   S
    C196   H83       1.10080      .   S
    C218   H118      1.10075      .   S
    C220   H120      1.10075      .   S
    C216   H116      1.10076      .   S
    C214   H114      1.10075      .   S
