# CIF file generated by openbabel 2.4.90, see http://openbabel.sf.net
data_I
_chemical_name_common ''
_cell_length_a 15.885
_cell_length_b 18.338
_cell_length_c 19.602
_cell_angle_alpha 92.926
_cell_angle_beta 114.074
_cell_angle_gamma 82.713
_space_group_name_H-M_alt 'P 1'
_space_group_name_Hall 'P 1'
loop_
    _symmetry_equiv_pos_as_xyz
    x,y,z
loop_
    _atom_site_label
    _atom_site_type_symbol
    _atom_site_fract_x
    _atom_site_fract_y
    _atom_site_fract_z
    _atom_site_occupancy
    Cd0     Cd   0.00005   0.24998   0.74998   1.000
    Cd1     Cd   0.00005   0.74996   0.25000   1.000
    Cd2     Cd   0.00005   0.74996   0.74998   1.000
    Cd3     Cd   0.50004   0.24998   0.25000   1.000
    Cd4     Cd   0.50004   0.24998   0.74998   1.000
    Cd5     Cd   0.50004   0.74996   0.25000   1.000
    Cd6     Cd   0.50004   0.74996   0.74998   1.000
    Cd7     Cd   0.25004   0.24997   0.25000   1.000
    Cd8     Cd   0.25004   0.24997   0.74998   1.000
    Cd9     Cd   0.25004   0.74996   0.25000   1.000
    Cd10    Cd   0.25005   0.74996   0.74998   1.000
    Cd11    Cd   0.75003   0.24998   0.24999   1.000
    Cd12    Cd   0.75003   0.24998   0.74998   1.000
    Cd13    Cd   0.75003   0.74996   0.24999   1.000
    Cd14    Cd   0.75004   0.74996   0.74998   1.000
    Cd15    Cd   0.25004   0.99998   0.00000   1.000
    Cd16    Cd   0.25004   0.99998   0.49999   1.000
    Cd17    Cd   0.25005   0.49996   0.00000   1.000
    Cd18    Cd   0.25004   0.49997   0.49999   1.000
    Cd19    Cd   0.75004   0.99998   0.00000   1.000
    Cd20    Cd   0.75003   0.99998   0.49999   1.000
    Cd21    Cd   0.75004   0.49997   0.00000   1.000
    Cd22    Cd   0.75004   0.49997   0.49999   1.000
    Cd23    Cd   0.00004   0.24998   0.25000   1.000
    Cl24    Cl   0.07739   0.25007   0.15529   1.000
    Cl25    Cl   0.07739   0.25007   0.65520   1.000
    Cl26    Cl   0.07739   0.75006   0.15529   1.000
    Cl27    Cl   0.07739   0.75006   0.65527   1.000
    Cl28    Cl   0.57738   0.25007   0.15529   1.000
    Cl29    Cl   0.57738   0.25007   0.65527   1.000
    Cl30    Cl   0.57738   0.75006   0.15529   1.000
    Cl31    Cl   0.57738   0.75006   0.65527   1.000
    Cl32    Cl   0.42269   0.24988   0.34471   1.000
    Cl33    Cl   0.42270   0.24988   0.84469   1.000
    Cl34    Cl   0.42269   0.74987   0.34471   1.000
    Cl35    Cl   0.42270   0.74987   0.84469   1.000
    Cl36    Cl   0.92268   0.24988   0.34470   1.000
    Cl37    Cl   0.92269   0.24988   0.84469   1.000
    Cl38    Cl   0.92268   0.74987   0.34470   1.000
    Cl39    Cl   0.92269   0.74987   0.84469   1.000
loop_
    _geom_bond_atom_site_label_1
    _geom_bond_atom_site_label_2
    _geom_bond_distance
    _geom_bond_site_symmetry_2
    _ccdc_geom_bond_type
    Cl30   Cd13      2.61023      .   S
    Cl28   Cd11      2.61023      .   S
    Cl26   Cd9       2.61029      .   S
    Cl24   Cd7       2.61028      .   S
    Cd11   Cl36      2.61028      .   S
    Cd13   Cl38      2.61028      .   S
    Cd7    Cl32      2.61028      .   S
    Cd9    Cl34      2.61029      .   S
    Cl25   Cd8       2.61068      .   S
    Cl27   Cd10      2.61028      .   S
    Cl29   Cd12      2.61029      .   S
    Cl31   Cd14      2.61028      .   S
    Cd8    Cl33      2.61028      .   S
    Cd14   Cl39      2.61028      .   S
    Cd12   Cl37      2.61027      .   S
    Cd10   Cl35      2.61029      .   S
