# CIF file generated by openbabel 2.4.90, see http://openbabel.sf.net
data_I
_chemical_name_common ''
_cell_length_a 15.885
_cell_length_b 18.338
_cell_length_c 19.602
_cell_angle_alpha 92.926
_cell_angle_beta 114.074
_cell_angle_gamma 82.713
_space_group_name_H-M_alt 'P 1'
_space_group_name_Hall 'P 1'
loop_
    _symmetry_equiv_pos_as_xyz
    x,y,z
loop_
    _atom_site_label
    _atom_site_type_symbol
    _atom_site_fract_x
    _atom_site_fract_y
    _atom_site_fract_z
    _atom_site_occupancy
    N0      N    0.07201   0.99999   0.14458   1.000
    N1      N    0.07202   0.99999   0.64456   1.000
    N2      N    0.07201   0.49999   0.14458   1.000
    N3      N    0.07202   0.49999   0.64456   1.000
    N4      N    0.57201   0.99999   0.14450   1.000
    N5      N    0.57202   0.99999   0.64456   1.000
    N6      N    0.57201   0.49999   0.14457   1.000
    N7      N    0.57202   0.49999   0.64456   1.000
    N8      N    0.42806   0.49995   0.35541   1.000
    N9      N    0.42807   0.49995   0.85539   1.000
    N10     N    0.42806   0.99995   0.35541   1.000
    N11     N    0.42807   0.99995   0.85539   1.000
    N12     N    0.92806   0.49995   0.35541   1.000
    N13     N    0.92807   0.49995   0.85539   1.000
    N14     N    0.92806   0.99995   0.35539   1.000
    N15     N    0.92807   0.99995   0.85539   1.000
    Zr16    Zr   0.75003   0.24998   0.74998   1.000
    O17     O    0.70936   0.32416   0.71480   1.000
    O18     O    0.79072   0.17580   0.78516   1.000
    O19     O    0.83800   0.17681   0.71417   1.000
    O20     O    0.66208   0.32314   0.78579   1.000
    Zr21    Zr   0.25004   0.49997   0.49999   1.000
    O22     O    0.16130   0.48962   0.45217   1.000
    O23     O    0.33879   0.51032   0.54781   1.000
    O24     O    0.20885   0.48964   0.54779   1.000
    O25     O    0.29124   0.51030   0.45218   1.000
    Zr26    Zr   0.75004   0.99998   0.00000   1.000
    O27     O    0.83878   0.01033   0.04782   1.000
    O28     O    0.70884   0.98965   0.04779   1.000
    O29     O    0.79123   0.01030   0.95217   1.000
    O30     O    0.66130   0.98963   0.95216   1.000
    Zr31    Zr   0.75003   0.99998   0.49999   1.000
    O32     O    0.70884   0.98965   0.54780   1.000
    O33     O    0.83878   0.01033   0.54781   1.000
    O34     O    0.66129   0.98963   0.45217   1.000
    O35     O    0.79123   0.01031   0.45218   1.000
    Zr36    Zr   0.75004   0.49997   0.00000   1.000
    O37     O    0.79123   0.51029   0.95217   1.000
    O38     O    0.70884   0.48964   0.04781   1.000
    O39     O    0.66130   0.48962   0.95217   1.000
    O40     O    0.83878   0.51032   0.04782   1.000
    Zr41    Zr   0.75004   0.49997   0.49999   1.000
    O42     O    0.79123   0.51030   0.45218   1.000
    O43     O    0.70884   0.48965   0.54780   1.000
    O44     O    0.83878   0.51032   0.54781   1.000
    O45     O    0.66129   0.48962   0.45217   1.000
    Zr46    Zr   0.25005   0.49996   0.00000   1.000
    O47     O    0.33879   0.51031   0.04782   1.000
    O48     O    0.16130   0.48962   0.95217   1.000
    O49     O    0.29124   0.51029   0.95218   1.000
    O50     O    0.20885   0.48964   0.04781   1.000
    Zr51    Zr   0.00004   0.24998   0.25000   1.000
    O52     O    0.12403   0.17680   0.28580   1.000
    O53     O    0.99475   0.32413   0.28517   1.000
    O54     O    0.87605   0.32315   0.21418   1.000
    O55     O    0.00533   0.17582   0.21482   1.000
    Zr56    Zr   0.25004   0.99998   0.49999   1.000
    O57     O    0.29124   0.01031   0.45218   1.000
    O58     O    0.16130   0.98963   0.45216   1.000
    O59     O    0.33879   0.01033   0.54781   1.000
    O60     O    0.20885   0.98965   0.54779   1.000
    Zr61    Zr   0.75004   0.74997   0.74998   1.000
    O62     O    0.79072   0.67579   0.78515   1.000
    O63     O    0.70936   0.82415   0.71480   1.000
    O64     O    0.83800   0.67680   0.71417   1.000
    O65     O    0.66208   0.82313   0.78579   1.000
    Zr66    Zr   0.25004   0.99998   0.00000   1.000
    O67     O    0.33879   0.01032   0.04780   1.000
    O68     O    0.29124   0.01030   0.95218   1.000
    O69     O    0.16130   0.98963   0.95217   1.000
    O70     O    0.20885   0.98965   0.04781   1.000
    Zr71    Zr   0.75003   0.74997   0.24999   1.000
    O72     O    0.83799   0.67680   0.21418   1.000
    O73     O    0.66207   0.82313   0.28580   1.000
    O74     O    0.70935   0.82415   0.21480   1.000
    O75     O    0.79071   0.67579   0.28517   1.000
    Zr76    Zr   0.00005   0.24998   0.74998   1.000
    O77     O    0.99476   0.32413   0.78515   1.000
    O78     O    0.87606   0.32315   0.71417   1.000
    O79     O    0.00534   0.17582   0.71481   1.000
    O80     O    0.12403   0.17680   0.78579   1.000
    Zr81    Zr   0.00005   0.74996   0.25000   1.000
    O82     O    0.99475   0.82412   0.28516   1.000
    O83     O    0.00533   0.67581   0.21483   1.000
    O84     O    0.87606   0.82314   0.21417   1.000
    O85     O    0.12403   0.67679   0.28580   1.000
    Zr86    Zr   0.00005   0.74996   0.74998   1.000
    O87     O    0.87606   0.82314   0.71417   1.000
    O88     O    0.12403   0.67679   0.78579   1.000
    O89     O    0.00534   0.67581   0.71481   1.000
    O90     O    0.99476   0.82412   0.78515   1.000
    Zr91    Zr   0.50004   0.24998   0.25000   1.000
    O92     O    0.37605   0.32315   0.21419   1.000
    O93     O    0.50533   0.17582   0.21481   1.000
    O94     O    0.62402   0.17680   0.28580   1.000
    O95     O    0.49474   0.32413   0.28517   1.000
    Zr96    Zr   0.50004   0.24998   0.74998   1.000
    O97     O    0.49475   0.32413   0.78515   1.000
    O98     O    0.50533   0.17582   0.71480   1.000
    O99     O    0.37605   0.32315   0.71417   1.000
    O100    O    0.62403   0.17680   0.78579   1.000
    Zr101   Zr   0.50004   0.74996   0.25000   1.000
    O102    O    0.62402   0.67679   0.28580   1.000
    O103    O    0.50533   0.67581   0.21483   1.000
    O104    O    0.49475   0.82412   0.28517   1.000
    O105    O    0.37605   0.82314   0.21419   1.000
    Zr106   Zr   0.50004   0.74996   0.74998   1.000
    O107    O    0.62403   0.67679   0.78578   1.000
    O108    O    0.50533   0.67581   0.71480   1.000
    O109    O    0.37606   0.82314   0.71417   1.000
    O110    O    0.49475   0.82412   0.78515   1.000
    Zr111   Zr   0.25004   0.24997   0.25000   1.000
    O112    O    0.29072   0.17580   0.28517   1.000
    O113    O    0.16208   0.32314   0.28581   1.000
    O114    O    0.20936   0.32415   0.21482   1.000
    O115    O    0.33800   0.17681   0.21417   1.000
    Zr116   Zr   0.25004   0.24997   0.74996   1.000
    O117    O    0.16208   0.32314   0.78578   1.000
    O118    O    0.33800   0.17681   0.71416   1.000
    O119    O    0.20936   0.32415   0.71479   1.000
    O120    O    0.29072   0.17579   0.78514   1.000
    Zr121   Zr   0.25004   0.74996   0.25000   1.000
    O122    O    0.33800   0.67680   0.21419   1.000
    O123    O    0.16208   0.82313   0.28580   1.000
    O124    O    0.29072   0.67579   0.28517   1.000
    O125    O    0.20936   0.82414   0.21482   1.000
    Zr126   Zr   0.25005   0.74996   0.74998   1.000
    O127    O    0.16209   0.82313   0.78579   1.000
    O128    O    0.33801   0.67680   0.71417   1.000
    O129    O    0.29072   0.67578   0.78516   1.000
    O130    O    0.20936   0.82414   0.71480   1.000
    Zr131   Zr   0.75003   0.24998   0.24999   1.000
    O132    O    0.70935   0.32416   0.21481   1.000
    O133    O    0.83799   0.17681   0.21418   1.000
    O134    O    0.79071   0.17580   0.28517   1.000
    O135    O    0.66207   0.32314   0.28580   1.000
loop_
    _geom_bond_atom_site_label_1
    _geom_bond_atom_site_label_2
    _geom_bond_distance
    _geom_bond_site_symmetry_2
    _ccdc_geom_bond_type
    Zr16   O17       1.50085      .   S
    N7     O17       3.64291      .   S
    Zr16   O18       1.50093      .   S
    N15    O18       3.64312  1_565   S
    Zr16   O19       2.11513      .   S
    N1     O19       5.17920  1_465   S
    Zr16   O20       2.11501      .   S
    N9     O20       5.17891      .   S
    Zr21   O22       1.36880      .   S
    N12    O22       3.38904  1_655   S
    Zr21   O23       1.36878      .   S
    N7     O23       3.38897      .   S
    Zr21   O24       1.37549      .   S
    N3     O24       3.40299      .   S
    Zr21   O25       1.37554      .   S
    N8     O25       3.40308      .   S
    Zr26   O27       1.36876  1_565   S
    N0     O27       3.38898  1_465   S
    Zr26   O28       1.37522      .   S
    N4     O28       3.40217      .   S
    Zr26   O29       1.37588  1_564   S
    N15    O29       3.40326  1_565   S
    Zr26   O30       1.36889  1_554   S
    N11    O30       3.38900      .   S
    Zr31   O32       1.37551      .   S
    N5     O32       3.40298      .   S
    Zr31   O33       1.36876  1_565   S
    N1     O33       3.38902  1_465   S
    Zr31   O34       1.36881      .   S
    N10    O34       3.38898      .   S
    Zr31   O35       1.37562  1_565   S
    N14    O35       3.40335  1_565   S
    Zr36   O37       1.37591  1_554   S
    N13    O37       3.40329      .   S
    Zr36   O38       1.37550      .   S
    N6     O38       3.40299      .   S
    Zr36   O39       1.36883  1_554   S
    N9     O39       3.38900      .   S
    Zr36   O40       1.36875      .   S
    N2     O40       3.38898  1_455   S
    Zr41   O42       1.37555      .   S
    N12    O42       3.40311      .   S
    Zr41   O43       1.37549      .   S
    N7     O43       3.40298      .   S
    Zr41   O44       1.36878      .   S
    N3     O44       3.38902  1_455   S
    Zr41   O45       1.36880      .   S
    N8     O45       3.38898      .   S
    Zr46   O47       1.36875      .   S
    N6     O47       3.38891      .   S
    Zr46   O48       1.36884  1_554   S
    N13    O48       3.38908  1_655   S
    Zr46   O49       1.37569  1_554   S
    N9     O49       3.40331      .   S
    Zr46   O50       1.37557      .   S
    N2     O50       3.40310      .   S
    Zr51   O52       2.11427      .   S
    N10    O52       5.17751  1_565   S
    Zr51   O53       1.50134  1_455   S
    N12    O53       3.64468      .   S
    Zr51   O54       2.11431  1_455   S
    N6     O54       5.17753      .   S
    Zr51   O55       1.50145      .   S
    N0     O55       3.64476  1_565   S
    Zr56   O57       1.37552  1_565   S
    N10    O57       3.40306  1_565   S
    Zr56   O58       1.36885      .   S
    N14    O58       3.38908  1_655   S
    Zr56   O59       1.36877  1_565   S
    N5     O59       3.38897  1_565   S
    Zr56   O60       1.37550      .   S
    N1     O60       3.40295      .   S
    Zr61   O62       1.50082      .   S
    N13    O62       3.64299      .   S
    Zr61   O63       1.50091      .   S
    N5     O63       3.64307      .   S
    Zr61   O64       2.11508      .   S
    N3     O64       5.17906  1_455   S
    Zr61   O65       2.11504      .   S
    N11    O65       5.17896      .   S
    Zr66   O67       1.36866  1_565   S
    N4     O67       3.38879  1_565   S
    Zr66   O68       1.37569  1_564   S
    N11    O68       3.40337  1_565   S
    Zr66   O69       1.36886  1_554   S
    N15    O69       3.38907  1_655   S
    Zr66   O70       1.37559      .   S
    N0     O70       3.40312      .   S
    Zr71   O72       2.11508      .   S
    N2     O72       5.17903  1_455   S
    Zr71   O73       2.11506      .   S
    N10    O73       5.17901      .   S
    Zr71   O74       1.50104      .   S
    N4     O74       3.64327      .   S
    Zr71   O75       1.50088      .   S
    N12    O75       3.64298      .   S
    Zr76   O77       1.50134  1_455   S
    N13    O77       3.64466      .   S
    Zr76   O78       2.11431  1_455   S
    N7     O78       5.17753      .   S
    Zr76   O79       1.50140      .   S
    N1     O79       3.64484  1_565   S
    Zr76   O80       2.11427      .   S
    N11    O80       5.17751  1_565   S
    Zr81   O82       1.50131  1_455   S
    N14    O82       3.64474      .   S
    Zr81   O83       1.50134      .   S
    N2     O83       3.64467      .   S
    Zr81   O84       2.11434  1_455   S
    N4     O84       5.17754      .   S
    Zr81   O85       2.11423      .   S
    N8     O85       5.17740      .   S
    Zr86   O87       2.11435  1_455   S
    N5     O87       5.17764      .   S
    Zr86   O88       2.11423      .   S
    N9     O88       5.17740      .   S
    Zr86   O89       1.50134      .   S
    N3     O89       3.64466      .   S
    Zr86   O90       1.50140  1_455   S
    N15    O90       3.64484      .   S
    Zr91   O92       2.11427      .   S
    N2     O92       5.17748      .   S
    Zr91   O93       1.50156      .   S
    N4     O93       3.64533  1_565   S
    Zr91   O94       2.11430      .   S
    N14    O94       5.17761  1_565   S
    Zr91   O95       1.50132      .   S
    N8     O95       3.64462      .   S
    Zr96   O97       1.50135      .   S
    N9     O97       3.64466      .   S
    Zr96   O98       1.50143      .   S
    N5     O98       3.64475  1_565   S
    Zr96   O99       2.11427      .   S
    N3     O99       5.17748      .   S
    Zr96   O100      2.11430      .   S
    N15    O100      5.17759  1_565   S
    Zr101  O102      2.11426      .   S
    N12    O102      5.17747      .   S
    Zr101  O103      1.50136      .   S
    N6     O103      3.64472      .   S
    Zr101  O104      1.50138      .   S
    N10    O104      3.64479      .   S
    Zr101  O105      2.11431      .   S
    N0     O105      5.17759      .   S
    Zr106  O107      2.11426      .   S
    N13    O107      5.17748      .   S
    Zr106  O108      1.50138      .   S
    N7     O108      3.64459      .   S
    Zr106  O109      2.11431      .   S
    N1     O109      5.17758      .   S
    Zr106  O110      1.50139      .   S
    N11    O110      3.64478      .   S
    Zr111  O112      1.50089      .   S
    N10    O112      3.64303  1_565   S
    Zr111  O113      2.11505      .   S
    N12    O113      5.17897  1_655   S
    Zr111  O114      1.50091      .   S
    N2     O114      3.64301      .   S
    Zr111  O115      2.11531      .   S
    N4     O115      5.17964  1_565   S
    Zr116  O117      2.11519      .   S
    N13    O117      5.17908  1_655   S
    Zr116  O118      2.11493      .   S
    N5     O118      5.17889  1_565   S
    Zr116  O119      1.50081      .   S
    N3     O119      3.64297      .   S
    Zr116  O120      1.50098      .   S
    N11    O120      3.64307  1_565   S
    Zr121  O122      2.11508      .   S
    N6     O122      5.17899      .   S
    Zr121  O123      2.11503      .   S
    N14    O123      5.17893  1_655   S
    Zr121  O124      1.50084      .   S
    N8     O124      3.64287      .   S
    Zr121  O125      1.50097      .   S
    N0     O125      3.64316      .   S
    Zr126  O127      2.11510      .   S
    N15    O127      5.17908  1_655   S
    Zr126  O128      2.11503      .   S
    N7     O128      5.17890      .   S
    Zr126  O129      1.50086      .   S
    N9     O129      3.64289      .   S
    Zr126  O130      1.50095      .   S
    N1     O130      3.64317      .   S
    Zr131  O132      1.50088      .   S
    N6     O132      3.64293      .   S
    Zr131  O133      2.11511      .   S
    N0     O133      5.17913  1_465   S
    Zr131  O134      1.50090      .   S
    N14    O134      3.64308  1_565   S
    Zr131  O135      2.11502      .   S
    N8     O135      5.17888      .   S
