# CIF file generated by openbabel 2.4.90, see http://openbabel.sf.net
data_I
_chemical_name_common ''
_cell_length_a 15.885
_cell_length_b 18.338
_cell_length_c 19.602
_cell_angle_alpha 92.926
_cell_angle_beta 114.074
_cell_angle_gamma 82.713
_space_group_name_H-M_alt 'P 1'
_space_group_name_Hall 'P 1'
loop_
    _symmetry_equiv_pos_as_xyz
    x,y,z
loop_
    _atom_site_label
    _atom_site_type_symbol
    _atom_site_fract_x
    _atom_site_fract_y
    _atom_site_fract_z
    _atom_site_occupancy
    Zr0     Zr   0.00004   0.24998   0.25000   1.000
    Zr1     Zr   0.00005   0.24998   0.74998   1.000
    Zr2     Zr   0.00005   0.74996   0.25000   1.000
    Zr3     Zr   0.00005   0.74996   0.74998   1.000
    Zr4     Zr   0.50004   0.24998   0.25000   1.000
    Zr5     Zr   0.50004   0.24998   0.74998   1.000
    Zr6     Zr   0.50004   0.74996   0.25000   1.000
    Zr7     Zr   0.50004   0.74996   0.74998   1.000
    Zr8     Zr   0.25004   0.24997   0.25000   1.000
    Zr9     Zr   0.25004   0.24997   0.74998   1.000
    Zr10    Zr   0.25004   0.74996   0.25000   1.000
    Zr11    Zr   0.25005   0.74996   0.74998   1.000
    Zr12    Zr   0.75003   0.24998   0.24999   1.000
    Zr13    Zr   0.75003   0.24998   0.74998   1.000
    Zr14    Zr   0.75003   0.74996   0.24999   1.000
    Zr15    Zr   0.75004   0.74996   0.74998   1.000
    Zr16    Zr   0.25004   0.99998   0.00000   1.000
    Zr17    Zr   0.25004   0.99998   0.49999   1.000
    Zr18    Zr   0.25005   0.49996   0.00000   1.000
    Zr19    Zr   0.25004   0.49997   0.49999   1.000
    Zr20    Zr   0.75004   0.99998   0.00000   1.000
    Zr21    Zr   0.75003   0.99998   0.49999   1.000
    Zr22    Zr   0.75004   0.49997   0.00000   1.000
    Zr23    Zr   0.75004   0.49997   0.49999   1.000
    Zr24    Zr   0.07739   0.25007   0.15529   1.000
    Zr25    Zr   0.07739   0.25007   0.65520   1.000
    Zr26    Zr   0.07739   0.75006   0.15529   1.000
    Zr27    Zr   0.07739   0.75006   0.65527   1.000
    Zr28    Zr   0.57738   0.25007   0.15529   1.000
    Zr29    Zr   0.57738   0.25007   0.65527   1.000
    Zr30    Zr   0.57738   0.75006   0.15529   1.000
    Zr31    Zr   0.57738   0.75006   0.65527   1.000
    Zr32    Zr   0.42269   0.24988   0.34471   1.000
    Zr33    Zr   0.42270   0.24988   0.84469   1.000
    Zr34    Zr   0.42269   0.74987   0.34471   1.000
    Zr35    Zr   0.42270   0.74987   0.84469   1.000
    Zr36    Zr   0.92268   0.24988   0.34470   1.000
    Zr37    Zr   0.92269   0.24988   0.84469   1.000
    Zr38    Zr   0.92268   0.74987   0.34470   1.000
    Zr39    Zr   0.92269   0.74987   0.84469   1.000
    O40     O    0.66371   0.75001   0.20264   1.000
    O41     O    0.66370   0.25003   0.20264   1.000
    O42     O    0.16372   0.75001   0.20264   1.000
    O43     O    0.16371   0.25002   0.20264   1.000
    O44     O    0.83636   0.24993   0.29734   1.000
    O45     O    0.83636   0.74992   0.29734   1.000
    O46     O    0.33637   0.24993   0.29735   1.000
    O47     O    0.33637   0.74991   0.29735   1.000
    O48     O    0.16372   0.25002   0.70259   1.000
    O49     O    0.16372   0.75001   0.70262   1.000
    O50     O    0.66371   0.25003   0.70262   1.000
    O51     O    0.66371   0.75001   0.70262   1.000
    O52     O    0.33637   0.24993   0.79733   1.000
    O53     O    0.83636   0.74992   0.79733   1.000
    O54     O    0.83636   0.24993   0.79733   1.000
    O55     O    0.33637   0.74991   0.79733   1.000
    N56     N    0.07201   0.99999   0.14458   1.000
    O57     O    0.92595   0.10365   0.17838   1.000
    O58     O    0.92752   0.02067   0.09564   1.000
    O59     O    0.01062   0.10167   0.17964   1.000
    O60     O    0.25206   0.89632   0.17838   1.000
    O61     O    0.16765   0.97932   0.09562   1.000
    O62     O    0.16868   0.89832   0.17964   1.000
    N63     N    0.07202   0.99999   0.64456   1.000
    O64     O    0.92596   0.10364   0.67836   1.000
    O65     O    0.92752   0.02067   0.59563   1.000
    O66     O    0.01062   0.10166   0.67963   1.000
    O67     O    0.25207   0.89632   0.67836   1.000
    O68     O    0.16765   0.97932   0.59560   1.000
    O69     O    0.16868   0.89832   0.67962   1.000
    N70     N    0.07201   0.49999   0.14458   1.000
    O71     O    0.92595   0.60364   0.17838   1.000
    O72     O    0.92752   0.52067   0.09564   1.000
    O73     O    0.01062   0.60166   0.17965   1.000
    O74     O    0.25206   0.39632   0.17838   1.000
    O75     O    0.16765   0.47932   0.09562   1.000
    O76     O    0.16868   0.39833   0.17964   1.000
    N77     N    0.07202   0.49999   0.64456   1.000
    O78     O    0.92596   0.60364   0.67836   1.000
    O79     O    0.92752   0.52067   0.59563   1.000
    O80     O    0.01062   0.60166   0.67963   1.000
    O81     O    0.25207   0.39632   0.67836   1.000
    O82     O    0.16765   0.47932   0.59560   1.000
    O83     O    0.16868   0.39833   0.67962   1.000
    N84     N    0.57201   0.99999   0.14450   1.000
    O85     O    0.42596   0.10364   0.17834   1.000
    O86     O    0.42753   0.02067   0.09561   1.000
    O87     O    0.51062   0.10167   0.17962   1.000
    O88     O    0.75207   0.89632   0.17834   1.000
    O89     O    0.66765   0.97932   0.09558   1.000
    O90     O    0.66868   0.89833   0.17960   1.000
    N91     N    0.57202   0.99999   0.64456   1.000
    O92     O    0.42596   0.10364   0.67836   1.000
    O93     O    0.42753   0.02067   0.59563   1.000
    O94     O    0.51062   0.10167   0.67963   1.000
    O95     O    0.75207   0.89632   0.67837   1.000
    O96     O    0.66765   0.97932   0.59560   1.000
    O97     O    0.66868   0.89833   0.67963   1.000
    N98     N    0.57201   0.49999   0.14457   1.000
    O99     O    0.42596   0.60364   0.17838   1.000
    O100    O    0.42753   0.52066   0.09564   1.000
    O101    O    0.51062   0.60166   0.17965   1.000
    O102    O    0.75207   0.39632   0.17836   1.000
    O103    O    0.66765   0.47932   0.09561   1.000
    O104    O    0.66868   0.39833   0.17964   1.000
    N105    N    0.57202   0.49999   0.64456   1.000
    O106    O    0.42596   0.60364   0.67836   1.000
    O107    O    0.42753   0.52066   0.59563   1.000
    O108    O    0.51062   0.60166   0.67963   1.000
    O109    O    0.75207   0.39632   0.67837   1.000
    O110    O    0.66765   0.47932   0.59560   1.000
    O111    O    0.66868   0.39833   0.67963   1.000
    N112    N    0.42806   0.49995   0.35541   1.000
    O113    O    0.57411   0.39630   0.32161   1.000
    O114    O    0.57255   0.47928   0.40434   1.000
    O115    O    0.48945   0.39828   0.32034   1.000
    O116    O    0.24801   0.60362   0.32161   1.000
    O117    O    0.33243   0.52062   0.40437   1.000
    O118    O    0.33140   0.60161   0.32035   1.000
    N119    N    0.42807   0.49995   0.85539   1.000
    O120    O    0.57412   0.39630   0.82159   1.000
    O121    O    0.57255   0.47928   0.90434   1.000
    O122    O    0.48946   0.39828   0.82032   1.000
    O123    O    0.24802   0.60362   0.82159   1.000
    O124    O    0.33243   0.52062   0.90437   1.000
    O125    O    0.33140   0.60161   0.82033   1.000
    N126    N    0.42806   0.99995   0.35541   1.000
    O127    O    0.57412   0.89630   0.32161   1.000
    O128    O    0.57255   0.97928   0.40434   1.000
    O129    O    0.48945   0.89828   0.32034   1.000
    O130    O    0.24801   0.10363   0.32161   1.000
    O131    O    0.33243   0.02063   0.40437   1.000
    O132    O    0.33140   0.10162   0.32035   1.000
    N133    N    0.42807   0.99995   0.85539   1.000
    O134    O    0.57412   0.89630   0.82159   1.000
    O135    O    0.57255   0.97928   0.90432   1.000
    O136    O    0.48946   0.89828   0.82032   1.000
    O137    O    0.24802   0.10362   0.82159   1.000
    O138    O    0.33243   0.02063   0.90436   1.000
    O139    O    0.33140   0.10161   0.82033   1.000
    N140    N    0.92806   0.49995   0.35541   1.000
    O141    O    0.07412   0.39630   0.32161   1.000
    O142    O    0.07255   0.47928   0.40434   1.000
    O143    O    0.98946   0.39828   0.32034   1.000
    O144    O    0.74801   0.60362   0.32161   1.000
    O145    O    0.83243   0.52062   0.40437   1.000
    O146    O    0.83139   0.60161   0.32035   1.000
    N147    N    0.92807   0.49995   0.85539   1.000
    O148    O    0.07412   0.39630   0.82159   1.000
    O149    O    0.07256   0.47927   0.90433   1.000
    O150    O    0.98946   0.39828   0.82032   1.000
    O151    O    0.74801   0.60362   0.82159   1.000
    O152    O    0.83243   0.52062   0.90434   1.000
    O153    O    0.83140   0.60161   0.82031   1.000
    N154    N    0.92806   0.99995   0.35539   1.000
    O155    O    0.07412   0.89630   0.32160   1.000
    O156    O    0.07255   0.97928   0.40433   1.000
    O157    O    0.98946   0.89828   0.32032   1.000
    O158    O    0.74801   0.10363   0.32160   1.000
    O159    O    0.83243   0.02063   0.40436   1.000
    O160    O    0.83139   0.10162   0.32034   1.000
    N161    N    0.92807   0.99995   0.85539   1.000
    O162    O    0.07412   0.89630   0.82160   1.000
    O163    O    0.07256   0.97927   0.90434   1.000
    O164    O    0.98946   0.89828   0.82032   1.000
    O165    O    0.74801   0.10363   0.82159   1.000
    O166    O    0.83243   0.02063   0.90435   1.000
    O167    O    0.83140   0.10162   0.82033   1.000
loop_
    _geom_bond_atom_site_label_1
    _geom_bond_atom_site_label_2
    _geom_bond_distance
    _geom_bond_site_symmetry_2
    _ccdc_geom_bond_type
    Zr30   O40       1.30512      .   S
    Zr14   O40       1.30512      .   S
    Zr28   O41       1.30512      .   S
    Zr12   O41       1.30512      .   S
    Zr26   O42       1.30514      .   S
    Zr10   O42       1.30514      .   S
    Zr24   O43       1.30514      .   S
    Zr8    O43       1.30514      .   S
    Zr12   O44       1.30514      .   S
    Zr36   O44       1.30514      .   S
    Zr14   O45       1.30514      .   S
    Zr38   O45       1.30514      .   S
    Zr8    O46       1.30514      .   S
    Zr32   O46       1.30514      .   S
    Zr10   O47       1.30515      .   S
    Zr34   O47       1.30515      .   S
    Zr25   O48       1.30534      .   S
    Zr9    O48       1.30534      .   S
    Zr27   O49       1.30514      .   S
    Zr11   O49       1.30514      .   S
    Zr29   O50       1.30515      .   S
    Zr13   O50       1.30515      .   S
    Zr31   O51       1.30514      .   S
    Zr15   O51       1.30514      .   S
    Zr9    O52       1.30514      .   S
    Zr33   O52       1.30514      .   S
    Zr15   O53       1.30514      .   S
    Zr39   O53       1.30514      .   S
    Zr13   O54       1.30513      .   S
    Zr37   O54       1.30513      .   S
    Zr11   O55       1.30515      .   S
    Zr35   O55       1.30515      .   S
    N56    O57       3.07274  1_465   S
    Zr12   O57       4.23018      .   S
    N56    O58       2.08618  1_465   S
    Zr20   O58       2.73751  1_565   S
    N56    O59       2.20327  1_565   S
    Zr0    O59       3.00291      .   S
    N56    O60       3.07200      .   S
    Zr6    O60       4.22862      .   S
    N56    O61       2.09264      .   S
    Zr16   O61       2.75119      .   S
    N56    O62       2.20224      .   S
    Zr10   O62       3.00194      .   S
    N63    O64       3.07279  1_465   S
    Zr13   O64       4.23024      .   S
    N63    O65       2.08620  1_465   S
    Zr21   O65       2.73753  1_565   S
    N63    O66       2.20341  1_565   S
    Zr1    O66       3.00280      .   S
    N63    O67       3.07199      .   S
    Zr7    O67       4.22861      .   S
    N63    O68       2.09256      .   S
    Zr17   O68       2.75100      .   S
    N63    O69       2.20224      .   S
    Zr11   O69       3.00190      .   S
    N70    O71       3.07268  1_455   S
    Zr14   O71       4.23011      .   S
    N70    O72       2.08616  1_455   S
    Zr22   O72       2.73751      .   S
    N70    O73       2.20331      .   S
    Zr2    O73       3.00268      .   S
    N70    O74       3.07192      .   S
    Zr4    O74       4.22854      .   S
    N70    O75       2.09262      .   S
    Zr18   O75       2.75114      .   S
    N70    O76       2.20214      .   S
    Zr8    O76       3.00182      .   S
    N77    O78       3.07270  1_455   S
    Zr15   O78       4.23015      .   S
    N77    O79       2.08619  1_455   S
    Zr23   O79       2.73756      .   S
    N77    O80       2.20330      .   S
    Zr3    O80       3.00268      .   S
    N77    O81       3.07192      .   S
    Zr5    O81       4.22854      .   S
    N77    O82       2.09259      .   S
    Zr19   O82       2.75099      .   S
    N77    O83       2.20214      .   S
    Zr9    O83       3.00179      .   S
    N84    O85       3.07305  1_565   S
    Zr8    O85       4.23062      .   S
    N84    O86       2.08610  1_565   S
    Zr16   O86       2.73731  1_565   S
    N84    O87       2.20372  1_565   S
    Zr4    O87       3.00313      .   S
    N84    O88       3.07191      .   S
    Zr2    O88       4.22869  1_455   S
    N84    O89       2.09208      .   S
    Zr20   O89       2.75045      .   S
    N84    O90       2.20223      .   S
    Zr14   O90       3.00207      .   S
    N91    O92       3.07267  1_565   S
    Zr9    O92       4.23012      .   S
    N91    O93       2.08615  1_565   S
    Zr17   O93       2.73755  1_565   S
    N91    O94       2.20327  1_565   S
    Zr5    O94       3.00287      .   S
    N91    O95       3.07200      .   S
    Zr3    O95       4.22870  1_455   S
    N91    O96       2.09259      .   S
    Zr21   O96       2.75102      .   S
    N91    O97       2.20218      .   S
    Zr15   O97       3.00183      .   S
    N98    O99       3.07264      .   S
    Zr10   O99       4.23015      .   S
    N98    O100      2.08610      .   S
    Zr18   O100      2.73751      .   S
    N98    O101      2.20332      .   S
    Zr6    O101      3.00273      .   S
    N98    O102      3.07197      .   S
    Zr0    O102      4.22862  1_455   S
    N98    O103      2.09259      .   S
    Zr22   O103      2.75100      .   S
    N98    O104      2.20209      .   S
    Zr12   O104      3.00174      .   S
    N105   O106      3.07260      .   S
    Zr11   O106      4.23005      .   S
    N105   O107      2.08613      .   S
    Zr19   O107      2.73757      .   S
    N105   O108      2.20317      .   S
    Zr7    O108      3.00276      .   S
    N105   O109      3.07193      .   S
    Zr1    O109      4.22863  1_455   S
    N105   O110      2.09259      .   S
    Zr23   O110      2.75098      .   S
    N105   O111      2.20209      .   S
    Zr13   O111      3.00172      .   S
    N112   O113      3.07258      .   S
    Zr12   O113      4.23009      .   S
    N112   O114      2.08612      .   S
    Zr23   O114      2.73759      .   S
    N112   O115      2.20326      .   S
    Zr4    O115      3.00265      .   S
    N112   O116      3.07189      .   S
    Zr2    O116      4.22847      .   S
    N112   O117      2.09264      .   S
    Zr19   O117      2.75108      .   S
    N112   O118      2.20207      .   S
    Zr10   O118      3.00166      .   S
    N119   O120      3.07262      .   S
    Zr13   O120      4.23002      .   S
    N119   O121      2.08612      .   S
    Zr22   O121      2.73765  1_554   S
    N119   O122      2.20327      .   S
    Zr5    O122      3.00270      .   S
    N119   O123      3.07189      .   S
    Zr3    O123      4.22847      .   S
    N119   O124      2.09273      .   S
    Zr18   O124      2.75137  1_554   S
    N119   O125      2.20207      .   S
    Zr11   O125      3.00171      .   S
    N126   O127      3.07267      .   S
    Zr14   O127      4.23017      .   S
    N126   O128      2.08613      .   S
    Zr21   O128      2.73763      .   S
    N126   O129      2.20337      .   S
    Zr6    O129      3.00277      .   S
    N126   O130      3.07195  1_565   S
    Zr0    O130      4.22854      .   S
    N126   O131      2.09264  1_565   S
    Zr17   O131      2.75103  1_565   S
    N126   O132      2.20217  1_565   S
    Zr8    O132      3.00179      .   S
    N133   O134      3.07264      .   S
    Zr15   O134      4.23009      .   S
    N133   O135      2.08612      .   S
    Zr20   O135      2.73778  1_554   S
    N133   O136      2.20335      .   S
    Zr7    O136      3.00278      .   S
    N133   O137      3.07196  1_565   S
    Zr1    O137      4.22854      .   S
    N133   O138      2.09278  1_565   S
    Zr16   O138      2.75139  1_564   S
    N133   O139      2.20216  1_565   S
    Zr9    O139      3.00180      .   S
    N140   O141      3.07265  1_655   S
    Zr8    O141      4.23009      .   S
    N140   O142      2.08618  1_655   S
    Zr19   O142      2.73760      .   S
    N140   O143      2.20330      .   S
    Zr0    O143      3.00268  1_455   S
    N140   O144      3.07193      .   S
    Zr6    O144      4.22852      .   S
    N140   O145      2.09265      .   S
    Zr23   O145      2.75110      .   S
    N140   O146      2.20213      .   S
    Zr14   O146      3.00177      .   S
    N147   O148      3.07263  1_655   S
    Zr9    O148      4.23012      .   S
    N147   O149      2.08619  1_655   S
    Zr18   O149      2.73768  1_554   S
    N147   O150      2.20329      .   S
    Zr1    O150      3.00268  1_455   S
    N147   O151      3.07193      .   S
    Zr7    O151      4.22853      .   S
    N147   O152      2.09251      .   S
    Zr22   O152      2.75182  1_554   S
    N147   O153      2.20215      .   S
    Zr15   O153      3.00163      .   S
    N154   O155      3.07263  1_655   S
    Zr10   O155      4.23006      .   S
    N154   O156      2.08619  1_655   S
    Zr17   O156      2.73769      .   S
    N154   O157      2.20339      .   S
    Zr2    O157      3.00263  1_455   S
    N154   O158      3.07203  1_565   S
    Zr4    O158      4.22860      .   S
    N154   O159      2.09282  1_565   S
    Zr21   O159      2.75125  1_565   S
    N154   O160      2.20221  1_565   S
    Zr12   O160      3.00181      .   S
    N161   O162      3.07271  1_655   S
    Zr11   O162      4.23020      .   S
    N161   O163      2.08619  1_655   S
    Zr16   O163      2.73772  1_554   S
    N161   O164      2.20340      .   S
    Zr3    O164      3.00279  1_455   S
    N161   O165      3.07200  1_565   S
    Zr5    O165      4.22860      .   S
    N161   O166      2.09251  1_565   S
    Zr20   O166      2.75177  1_564   S
    N161   O167      2.20222  1_565   S
    Zr13   O167      3.00185      .   S
