# CIF file generated by openbabel 2.4.90, see http://openbabel.sf.net
data_I
_chemical_name_common ''
_cell_length_a 23.047
_cell_length_b 15.562
_cell_length_c 16.219
_cell_angle_alpha 89.978
_cell_angle_beta 89.974
_cell_angle_gamma 90.074
_space_group_name_H-M_alt 'P 1'
_space_group_name_Hall 'P 1'
loop_
    _symmetry_equiv_pos_as_xyz
    x,y,z
loop_
    _atom_site_label
    _atom_site_type_symbol
    _atom_site_fract_x
    _atom_site_fract_y
    _atom_site_fract_z
    _atom_site_occupancy
    Lv0     Lv   0.20276   0.00030   0.53415   1.000
    Lv1     Lv   0.04817   0.00133   0.03353   1.000
    Lv2     Lv   0.54818   0.00103   0.03364   1.000
    Lv3     Lv   0.70185   0.99855   0.53360   1.000
    Lv4     Lv   0.95290   0.49971   0.46583   1.000
    Lv5     Lv   0.79719   0.50022   0.96589   1.000
    Lv6     Lv   0.45212   0.50201   0.46645   1.000
    Lv7     Lv   0.29714   0.50025   0.96585   1.000
