# CIF file generated by openbabel 2.4.90, see http://openbabel.sf.net
data_I
_chemical_name_common ''
_cell_length_a 23.047
_cell_length_b 15.562
_cell_length_c 16.219
_cell_angle_alpha 89.978
_cell_angle_beta 89.974
_cell_angle_gamma 90.074
_space_group_name_H-M_alt 'P 1'
_space_group_name_Hall 'P 1'
loop_
    _symmetry_equiv_pos_as_xyz
    x,y,z
loop_
    _atom_site_label
    _atom_site_type_symbol
    _atom_site_fract_x
    _atom_site_fract_y
    _atom_site_fract_z
    _atom_site_occupancy
    P0      P    0.15529   0.96783   0.54325   1.000
    P1      P    0.65422   0.96686   0.54328   1.000
    P2      P    0.09577   0.03311   0.04320   1.000
    P3      P    0.59575   0.03291   0.04331   1.000
    P4      P    0.34457   0.46787   0.95666   1.000
    P5      P    0.84462   0.46784   0.95674   1.000
    P6      P    0.40445   0.53341   0.45669   1.000
    P7      P    0.90546   0.53210   0.45676   1.000
    H8      H    0.23102   0.04825   0.53461   1.000
    H9      H    0.73041   0.04604   0.53354   1.000
    H10     H    0.01967   0.95378   0.03346   1.000
    H11     H    0.51971   0.95343   0.03362   1.000
    H12     H    0.26893   0.54814   0.96550   1.000
    H13     H    0.76897   0.54811   0.96552   1.000
    H14     H    0.48074   0.45469   0.46669   1.000
    H15     H    0.98112   0.45183   0.46540   1.000
    O16     O    0.22198   0.98482   0.52460   1.000
    O17     O    0.72094   0.98275   0.52398   1.000
    O18     O    0.02908   0.01710   0.02392   1.000
    O19     O    0.52908   0.01676   0.02398   1.000
    O20     O    0.27792   0.48474   0.97540   1.000
    O21     O    0.77796   0.48470   0.97540   1.000
    O22     O    0.47118   0.51792   0.47598   1.000
    O23     O    0.97213   0.51521   0.47534   1.000
loop_
    _geom_bond_atom_site_label_1
    _geom_bond_atom_site_label_2
    _geom_bond_distance
    _geom_bond_site_symmetry_2
    _ccdc_geom_bond_type
    O18    H10       1.02048  1_545   S
    O18    P2        1.58800      .   S
    O19    H11       1.02071  1_545   S
    O19    P3        1.58802      .   S
    P6     O22       1.58840      .   S
    P7     O23       1.58804      .   S
    H15    O23       1.02096      .   S
    H14    O22       1.01992      .   S
    O17    H9        1.02053  1_565   S
    O17    P1        1.58810      .   S
    O16    H8        1.02162  1_565   S
    O16    P0        1.58822      .   S
    P4     O20       1.58780      .   S
    P5     O21       1.58783      .   S
    H12    O20       1.02120      .   S
    H13    O21       1.02117      .   S
