# CIF file generated by openbabel 2.4.90, see http://openbabel.sf.net
data_I
_chemical_name_common ''
_cell_length_a 23.047
_cell_length_b 15.562
_cell_length_c 16.219
_cell_angle_alpha 89.978
_cell_angle_beta 89.974
_cell_angle_gamma 90.074
_space_group_name_H-M_alt 'P 1'
_space_group_name_Hall 'P 1'
loop_
    _symmetry_equiv_pos_as_xyz
    x,y,z
loop_
    _atom_site_label
    _atom_site_type_symbol
    _atom_site_fract_x
    _atom_site_fract_y
    _atom_site_fract_z
    _atom_site_occupancy
    P0      P    0.12732   0.81823   0.82009   1.000
    P1      P    0.62725   0.81815   0.82021   1.000
    P2      P    0.12272   0.18182   0.32016   1.000
    P3      P    0.62275   0.18185   0.32019   1.000
    P4      P    0.37272   0.31823   0.67987   1.000
    P5      P    0.87273   0.31817   0.67996   1.000
    P6      P    0.37723   0.68191   0.17977   1.000
    P7      P    0.87731   0.68181   0.17992   1.000
    H8      H    0.19457   0.75805   0.74279   1.000
    H9      H    0.69457   0.75813   0.74288   1.000
    H10     H    0.11593   0.02669   0.70183   1.000
    H11     H    0.61552   0.02652   0.70199   1.000
    H12     H    0.43569   0.17214   0.74512   1.000
    H13     H    0.93594   0.17198   0.74519   1.000
    H14     H    0.16442   0.96430   0.81152   1.000
    H15     H    0.66405   0.96441   0.81167   1.000
    H16     H    0.09004   0.96297   0.83353   1.000
    H17     H    0.58969   0.96269   0.83383   1.000
    H18     H    0.19751   0.93099   0.67677   1.000
    H19     H    0.69706   0.93140   0.67666   1.000
    H20     H    0.14684   0.85175   0.64309   1.000
    H21     H    0.64662   0.85145   0.64383   1.000
    H22     H    0.04379   0.86815   0.68189   1.000
    H23     H    0.54332   0.86795   0.68243   1.000
    H24     H    0.04624   0.96050   0.61474   1.000
    H25     H    0.54577   0.96005   0.61502   1.000
    H26     H    0.48978   0.87703   0.81521   1.000
    H27     H    0.99018   0.87679   0.81470   1.000
    H28     H    0.41846   0.95606   0.90171   1.000
    H29     H    0.91880   0.95556   0.90134   1.000
    H30     H    0.39505   0.11157   0.86360   1.000
    H31     H    0.89533   0.11114   0.86358   1.000
    H32     H    0.00194   0.10085   0.65717   1.000
    H33     H    0.50162   0.10070   0.65716   1.000
    H34     H    0.05543   0.24185   0.24285   1.000
    H35     H    0.55548   0.24186   0.24286   1.000
    H36     H    0.13453   0.97351   0.20190   1.000
    H37     H    0.63452   0.97342   0.20213   1.000
    H38     H    0.31433   0.82828   0.24486   1.000
    H39     H    0.81425   0.82800   0.24491   1.000
    H40     H    0.08588   0.03559   0.31170   1.000
    H41     H    0.58588   0.03562   0.31182   1.000
    H42     H    0.16024   0.03724   0.33374   1.000
    H43     H    0.66024   0.03725   0.33383   1.000
    H44     H    0.05279   0.06795   0.17671   1.000
    H45     H    0.55278   0.06788   0.17678   1.000
    H46     H    0.10293   0.14839   0.14387   1.000
    H47     H    0.60292   0.14827   0.14388   1.000
    H48     H    0.20646   0.13233   0.18228   1.000
    H49     H    0.70649   0.13219   0.18235   1.000
    H50     H    0.20416   0.04028   0.11486   1.000
    H51     H    0.70414   0.04014   0.11493   1.000
    H52     H    0.26023   0.12336   0.31485   1.000
    H53     H    0.76025   0.12312   0.31496   1.000
    H54     H    0.33171   0.04439   0.40114   1.000
    H55     H    0.83164   0.04405   0.40129   1.000
    H56     H    0.35514   0.88895   0.36309   1.000
    H57     H    0.85498   0.88853   0.36322   1.000
    H58     H    0.24829   0.89963   0.15707   1.000
    H59     H    0.74828   0.89949   0.15706   1.000
    H60     H    0.30538   0.25779   0.75708   1.000
    H61     H    0.80541   0.25775   0.75710   1.000
    H62     H    0.38425   0.52670   0.79806   1.000
    H63     H    0.88416   0.52665   0.79814   1.000
    H64     H    0.06421   0.67205   0.75495   1.000
    H65     H    0.56433   0.67172   0.75511   1.000
    H66     H    0.33587   0.46429   0.68816   1.000
    H67     H    0.83583   0.46420   0.68827   1.000
    H68     H    0.41031   0.46294   0.66663   1.000
    H69     H    0.91025   0.46292   0.66660   1.000
    C70     C    0.37688   0.43348   0.70550   1.000
    C71     C    0.87686   0.43343   0.70550   1.000
    C72     C    0.34476   0.42141   0.85132   1.000
    H73     H    0.30221   0.43204   0.82293   1.000
    H74     H    0.80229   0.43176   0.82306   1.000
    H75     H    0.35219   0.35202   0.85662   1.000
    H76     H    0.85241   0.35192   0.85676   1.000
    H77     H    0.45580   0.36795   0.81869   1.000
    H78     H    0.95593   0.36810   0.81861   1.000
    H79     H    0.45343   0.46033   0.88571   1.000
    H80     H    0.95352   0.46047   0.88560   1.000
    H81     H    0.00995   0.37651   0.68623   1.000
    H82     H    0.50996   0.37623   0.68641   1.000
    H83     H    0.08153   0.45524   0.59955   1.000
    H84     H    0.58173   0.45478   0.59989   1.000
    H85     H    0.10499   0.61097   0.63687   1.000
    H86     H    0.60523   0.61049   0.63716   1.000
    H87     H    0.49807   0.60075   0.84306   1.000
    H88     H    0.99805   0.60097   0.84297   1.000
    H89     H    0.44457   0.74227   0.25688   1.000
    H90     H    0.94462   0.74219   0.25707   1.000
    H91     H    0.36556   0.47366   0.29815   1.000
    H92     H    0.86589   0.47336   0.29827   1.000
    H93     H    0.18549   0.32817   0.25461   1.000
    H94     H    0.68573   0.32821   0.25486   1.000
    H95     H    0.41392   0.53576   0.18821   1.000
    H96     H    0.91426   0.53583   0.18834   1.000
    H97     H    0.33952   0.53729   0.16643   1.000
    H98     H    0.83984   0.53702   0.16675   1.000
    N99     N    0.11065   0.95823   0.70633   1.000
    N100    N    0.61020   0.95807   0.70650   1.000
    N101    N    0.44786   0.10755   0.76016   1.000
    N102    N    0.94818   0.10743   0.76016   1.000
    N103    N    0.13973   0.04196   0.20654   1.000
    H104    H    0.44723   0.56869   0.32309   1.000
    H105    H    0.94773   0.56855   0.32304   1.000
    H106    H    0.39701   0.64872   0.35607   1.000
    H107    H    0.89748   0.64813   0.35686   1.000
    H108    H    0.29359   0.63210   0.31824   1.000
    H109    H    0.79411   0.63188   0.31880   1.000
    H110    H    0.29590   0.53973   0.38531   1.000
    H111    H    0.79647   0.53936   0.38574   1.000
    H112    H    0.23974   0.62375   0.18580   1.000
    H113    H    0.74021   0.62378   0.18639   1.000
    H114    H    0.16814   0.54513   0.09924   1.000
    H115    H    0.66857   0.54533   0.09970   1.000
    H116    H    0.14461   0.38944   0.13662   1.000
    H117    H    0.64498   0.38961   0.13689   1.000
    H118    H    0.25166   0.39916   0.34251   1.000
    H119    H    0.75193   0.39901   0.34289   1.000
    C120    C    0.12330   0.93350   0.79446   1.000
    C121    C    0.62298   0.93341   0.79469   1.000
    C122    C    0.15484   0.92102   0.64849   1.000
    C123    C    0.65434   0.92082   0.64874   1.000
    C124    C    0.04888   0.93814   0.67876   1.000
    C125    C    0.54844   0.93792   0.67911   1.000
    C126    C    0.00432   0.98306   0.73130   1.000
    C127    C    0.50393   0.98306   0.73153   1.000
    C128    C    0.47841   0.94316   0.80008   1.000
    C129    C    0.97880   0.94296   0.79970   1.000
    C130    C    0.43834   0.98726   0.84868   1.000
    C131    C    0.93870   0.98692   0.84840   1.000
    C132    C    0.42419   0.07106   0.82795   1.000
    C133    C    0.92450   0.07075   0.82786   1.000
    C134    C    0.48644   0.06631   0.71188   1.000
    C135    C    0.98679   0.06634   0.71183   1.000
    C136    C    0.12696   0.06657   0.29465   1.000
    C137    C    0.62696   0.06657   0.29473   1.000
    C138    C    0.09548   0.07895   0.14875   1.000
    C139    C    0.59546   0.07883   0.14881   1.000
    C140    C    0.20147   0.06234   0.17890   1.000
    C141    C    0.70146   0.06221   0.17903   1.000
    C142    C    0.24604   0.01729   0.23131   1.000
    C143    C    0.74601   0.01710   0.23138   1.000
    C144    C    0.27162   0.05724   0.29972   1.000
    C145    C    0.77160   0.05699   0.29982   1.000
    C146    C    0.31177   0.01318   0.34820   1.000
    C147    C    0.81169   0.01285   0.34834   1.000
    C148    C    0.32596   0.92941   0.32748   1.000
    C149    C    0.82582   0.92905   0.32763   1.000
    C150    C    0.26353   0.93405   0.21169   1.000
    C151    C    0.76349   0.93385   0.21173   1.000
    C152    C    0.84487   0.42128   0.85143   1.000
    C153    C    0.45092   0.43794   0.82170   1.000
    C154    C    0.95099   0.43808   0.82164   1.000
    C155    C    0.49574   0.48273   0.76936   1.000
    C156    C    0.99573   0.48297   0.76922   1.000
    C157    C    0.02136   0.44274   0.70100   1.000
    C158    C    0.52143   0.44244   0.70122   1.000
    C159    C    0.06155   0.48668   0.65233   1.000
    C160    C    0.56171   0.48628   0.65260   1.000
    C161    C    0.07574   0.57060   0.67264   1.000
    C162    C    0.57594   0.57019   0.67292   1.000
    C163    C    0.01326   0.56634   0.78849   1.000
    C164    C    0.51333   0.56608   0.78862   1.000
    C165    C    0.37290   0.56668   0.20538   1.000
    C166    C    0.87321   0.56656   0.20562   1.000
    C167    C    0.40457   0.57934   0.35119   1.000
    C168    C    0.90514   0.57881   0.35140   1.000
    C169    C    0.29856   0.56212   0.32129   1.000
    C170    C    0.79905   0.56189   0.32176   1.000
    C171    C    0.25392   0.51724   0.26882   1.000
    C172    C    0.75432   0.51715   0.26929   1.000
    C173    C    0.22830   0.55752   0.20060   1.000
    C174    C    0.72873   0.55754   0.20114   1.000
    C175    C    0.18809   0.51366   0.15201   1.000
    C176    C    0.68850   0.51379   0.15245   1.000
    C177    C    0.17387   0.42974   0.17236   1.000
    C178    C    0.67424   0.42985   0.17269   1.000
    C179    C    0.23639   0.43385   0.28807   1.000
    C180    C    0.73672   0.43377   0.28847   1.000
    N181    N    0.63972   0.04189   0.20663   1.000
    N182    N    0.30218   0.89285   0.25985   1.000
    N183    N    0.80209   0.89258   0.25993   1.000
    N184    N    0.38932   0.45823   0.79369   1.000
    N185    N    0.88934   0.45822   0.79373   1.000
    N186    N    0.05197   0.60741   0.74013   1.000
    N187    N    0.55212   0.60706   0.74033   1.000
    N188    N    0.36027   0.54205   0.29356   1.000
    N189    N    0.86072   0.54180   0.29383   1.000
    N190    N    0.19766   0.39285   0.23979   1.000
    N191    N    0.69797   0.39288   0.24010   1.000
    O192    O    0.08241   0.76993   0.77076   1.000
    O193    O    0.58241   0.76976   0.77083   1.000
    O194    O    0.12511   0.81854   0.91280   1.000
    O195    O    0.62509   0.81846   0.91299   1.000
    O196    O    0.19247   0.78904   0.79511   1.000
    O197    O    0.69244   0.78914   0.79519   1.000
    O198    O    0.11992   0.04896   0.54125   1.000
    O199    O    0.61951   0.04861   0.54124   1.000
    O200    O    0.13433   0.89499   0.48870   1.000
    O201    O    0.63239   0.89392   0.48949   1.000
    O202    O    0.16759   0.23021   0.27073   1.000
    O203    O    0.66762   0.23021   0.27074   1.000
    O204    O    0.12489   0.18146   0.41293   1.000
    O205    O    0.62494   0.18155   0.41297   1.000
    O206    O    0.05754   0.21088   0.29519   1.000
    O207    O    0.55758   0.21089   0.29521   1.000
    O208    O    0.13055   0.95144   0.04109   1.000
    O209    O    0.63058   0.95129   0.04122   1.000
    O210    O    0.11757   0.10622   0.98952   1.000
    O211    O    0.61753   0.10599   0.98950   1.000
    O212    O    0.41757   0.26994   0.72922   1.000
    O213    O    0.91760   0.26989   0.72926   1.000
    O214    O    0.37494   0.31858   0.58700   1.000
    O215    O    0.87492   0.31859   0.58718   1.000
    O216    O    0.30752   0.28900   0.70486   1.000
    O217    O    0.80753   0.28894   0.70490   1.000
    O218    O    0.38006   0.54902   0.95873   1.000
    O219    O    0.88011   0.54898   0.95883   1.000
    O220    O    0.36555   0.39491   0.01100   1.000
    O221    O    0.86557   0.39488   0.01116   1.000
    O222    O    0.33243   0.73027   0.22917   1.000
    O223    O    0.83244   0.73009   0.22925   1.000
    O224    O    0.37506   0.68154   0.08700   1.000
    O225    O    0.87510   0.68145   0.08713   1.000
    O226    O    0.44246   0.71096   0.20474   1.000
    O227    O    0.94250   0.71104   0.20484   1.000
    O228    O    0.36980   0.45150   0.45879   1.000
    O229    O    0.86999   0.45095   0.45885   1.000
    O230    O    0.38247   0.60624   0.51042   1.000
    O231    O    0.88455   0.60495   0.51126   1.000
loop_
    _geom_bond_atom_site_label_1
    _geom_bond_atom_site_label_2
    _geom_bond_distance
    _geom_bond_site_symmetry_2
    _ccdc_geom_bond_type
    O224   P6        1.50550      .   S
    O225   P7        1.50585      .   S
    H114   C175      1.08832      .   S
    H115   C176      1.08833      .   S
    H50    C140      1.09583      .   S
    H51    C141      1.09675      .   S
    H116   C177      1.08796      .   S
    H117   C178      1.08787      .   S
    H46    C138      1.09682      .   S
    H47    C139      1.09684      .   S
    C138   H44       1.09637      .   S
    C138   N103      1.50066      .   S
    C139   H45       1.09632      .   S
    C139   N181      1.50073      .   S
    C175   C177      1.38580      .   S
    C175   C173      1.39477      .   S
    C176   C178      1.38580      .   S
    C176   C174      1.39514      .   S
    H59    C151      1.09324      .   S
    H58    C150      1.09328      .   S
    H97    C165      1.09540      .   S
    H98    C166      1.09538      .   S
    C177   N190      1.35171      .   S
    C178   N191      1.35142      .   S
    C140   H48       1.09638      .   S
    C140   N103      1.52444      .   S
    C140   C142      1.50713      .   S
    C141   H49       1.09637      .   S
    C141   N181      1.52425      .   S
    C141   C143      1.50676      .   S
    P6     O226      1.62095      .   S
    P6     C165      1.84322      .   S
    P6     O222      1.50864      .   S
    P7     O227      1.62078      .   S
    P7     C166      1.84352      .   S
    P7     O223      1.50854      .   S
    H112   C173      1.09014      .   S
    H113   C174      1.09029      .   S
    H95    C165      1.09707      .   S
    H96    C166      1.09708      .   S
    C173   C171      1.40236      .   S
    C174   C172      1.40206      .   S
    H36    N103      1.07445  1_565   S
    H37    N181      1.07454  1_565   S
    O226   H89       0.97734      .   S
    O227   H90       0.97738      .   S
    C165   N188      1.50864      .   S
    C166   N189      1.50901      .   S
    N103   C136      1.50861      .   S
    N181   C137      1.50869      .   S
    C150   C142      1.39411  1_565   S
    C150   N182      1.34781      .   S
    C151   C143      1.39422  1_565   S
    C151   N183      1.34792      .   S
    C142   C144      1.40192      .   S
    C143   C145      1.40187      .   S
    N190   H93       1.07174      .   S
    N190   C179      1.34778      .   S
    N191   H94       1.07176      .   S
    N191   C180      1.34820      .   S
    H34    O206      0.97734      .   S
    H35    O207      0.97740      .   S
    H38    N182      1.07152      .   S
    H39    N183      1.07179      .   S
    N182   C148      1.35173      .   S
    N183   C149      1.35175      .   S
    C171   C179      1.39389      .   S
    C171   C169      1.50667      .   S
    C172   C180      1.39397      .   S
    C172   C170      1.50698      .   S
    O202   P2        1.50862      .   S
    O203   P3        1.50861      .   S
    C179   H118      1.09335      .   S
    C180   H119      1.09315      .   S
    N188   H91       1.07406      .   S
    N188   C169      1.52418      .   S
    N188   C167      1.50078      .   S
    N189   H92       1.07428      .   S
    N189   C170      1.52429      .   S
    N189   C168      1.50052      .   S
    C136   H40       1.09709      .   S
    C136   P2        1.84345      .   S
    C136   H42       1.09536      .   S
    C137   H41       1.09713      .   S
    C137   P3        1.84364      .   S
    C137   H43       1.09544      .   S
    O206   P2        1.62083      .   S
    O207   P3        1.62078      .   S
    C144   H52       1.09023      .   S
    C144   C146      1.39511      .   S
    C145   H53       1.09027      .   S
    C145   C147      1.39529      .   S
    H108   C169      1.09634      .   S
    H109   C170      1.09637      .   S
    P2     O204      1.50549      .   S
    P3     O205      1.50567      .   S
    C169   H110      1.09676      .   S
    C170   H111      1.09676      .   S
    H105   C168      1.09581      .   S
    H104   C167      1.09634      .   S
    C148   C146      1.38596  1_565   S
    C148   H56       1.08788      .   S
    C149   C147      1.38597  1_565   S
    C149   H57       1.08800      .   S
    C146   H54       1.08840      .   S
    C147   H55       1.08838      .   S
    C167   H106      1.09683      .   S
    C168   H107      1.09700      .   S
    O214   P4        1.50711      .   S
    O215   P5        1.50563      .   S
    H83    C159      1.08840      .   S
    H84    C160      1.08832      .   S
    H24    C124      1.09670      .   S
    H25    C125      1.09673      .   S
    H85    C161      1.08806      .   S
    H86    C162      1.08795      .   S
    H20    C122      1.09692      .   S
    H21    C123      1.09685      .   S
    C122   H18       1.09631      .   S
    C122   N99       1.50115      .   S
    C123   H19       1.09628      .   S
    C123   N100      1.49970      .   S
    C159   C161      1.38580      .   S
    C159   C157      1.39488      .   S
    C160   C162      1.38584      .   S
    C160   C158      1.39519      .   S
    H33    C134      1.09333      .   S
    H32    C135      1.09322  1_455   S
    H69    C71       1.09513      .   S
    H68    C70       1.09541      .   S
    C161   N186      1.35174      .   S
    C162   N187      1.35162      .   S
    C124   H22       1.09636      .   S
    C124   N99       1.52442      .   S
    C124   C126      1.50695      .   S
    C125   H23       1.09637      .   S
    C125   N100      1.52377      .   S
    C125   C127      1.50657      .   S
    P4     O216      1.62073      .   S
    P4     C70       1.84363      .   S
    P4     O212      1.50869      .   S
    P5     O217      1.62056      .   S
    P5     C71       1.84334      .   S
    P5     O213      1.50851      .   S
    H81    C157      1.09018      .   S
    H82    C158      1.09028      .   S
    H66    C70       1.09711      .   S
    H67    C71       1.09678      .   S
    C157   C156      1.40222  1_455   S
    C158   C155      1.40206      .   S
    H10    N99       1.07468  1_545   S
    H11    N100      1.07451  1_545   S
    O216   H60       0.97733      .   S
    O217   H61       0.97698      .   S
    C70    N184      1.50894      .   S
    C71    N185      1.50991      .   S
    N99    C120      1.50878      .   S
    N100   C121      1.50999      .   S
    C135   C126      1.39408  1_645   S
    C135   N102      1.34784      .   S
    C134   C127      1.39421  1_545   S
    C134   N101      1.34788      .   S
    C126   C129      1.40153  1_455   S
    C127   C128      1.40197      .   S
    N186   H64       1.07192      .   S
    N186   C163      1.34797      .   S
    N187   H65       1.07169      .   S
    N187   C164      1.34795      .   S
    H8     O196      0.97740      .   S
    H9     O197      0.97745      .   S
    H12    N101      1.07193      .   S
    H13    N102      1.07162      .   S
    N101   C132      1.35170      .   S
    N102   C133      1.35176      .   S
    C156   C163      1.39392  1_655   S
    C156   C154      1.50695      .   S
    C155   C164      1.39393      .   S
    C155   C153      1.50681      .   S
    O192   P0        1.50859      .   S
    O193   P1        1.50864      .   S
    C163   H88       1.09305  1_455   S
    C164   H87       1.09322      .   S
    N184   H62       1.07441      .   S
    N184   C153      1.52433      .   S
    N184   C72       1.50116      .   S
    N185   H63       1.07413      .   S
    N185   C154      1.52434      .   S
    N185   C152      1.50128      .   S
    C120   H14       1.09716      .   S
    C120   P0        1.84369      .   S
    C120   H16       1.09548      .   S
    C121   H15       1.09709      .   S
    C121   P1        1.84352      .   S
    C121   H17       1.09539      .   S
    O196   P0        1.62069      .   S
    O197   P1        1.62080      .   S
    C129   H27       1.09034      .   S
    C129   C131      1.39541      .   S
    C128   H26       1.09023      .   S
    C128   C130      1.39514      .   S
    H78    C154      1.09637      .   S
    H77    C153      1.09633      .   S
    P0     O194      1.50451      .   S
    P1     O195      1.50562      .   S
    C154   H80       1.09597      .   S
    C153   H79       1.09672      .   S
    H73    C72       1.09635      .   S
    H74    C152      1.09637      .   S
    C133   C131      1.38601  1_545   S
    C133   H31       1.08802      .   S
    C132   C130      1.38602  1_545   S
    C132   H30       1.08802      .   S
    C131   H29       1.08833      .   S
    C130   H28       1.08832      .   S
    C72    H75       1.09689      .   S
    C152   H76       1.09687      .   S
