# CIF file generated by openbabel 2.4.90, see http://openbabel.sf.net
data_I
_chemical_name_common ''
_cell_length_a 23.047
_cell_length_b 15.562
_cell_length_c 16.219
_cell_angle_alpha 89.978
_cell_angle_beta 89.974
_cell_angle_gamma 90.074
_space_group_name_H-M_alt 'P 1'
_space_group_name_Hall 'P 1'
loop_
    _symmetry_equiv_pos_as_xyz
    x,y,z
loop_
    _atom_site_label
    _atom_site_type_symbol
    _atom_site_fract_x
    _atom_site_fract_y
    _atom_site_fract_z
    _atom_site_occupancy
    C0      C    0.98979   0.20903   0.51202   1.000
    C1      C    0.24408   0.73379   0.54466   1.000
    C2      C    0.74394   0.73343   0.54474   1.000
    C3      C    0.26819   0.76607   0.46118   1.000
    C4      C    0.76812   0.76474   0.46102   1.000
    C5      C    0.12772   0.82855   0.25054   1.000
    C6      C    0.62782   0.82837   0.25074   1.000
    C7      C    0.12989   0.72999   0.24247   1.000
    C8      C    0.62991   0.72982   0.24248   1.000
    C9      C    0.23833   0.70040   0.98861   1.000
    C10     C    0.73834   0.70038   0.98865   1.000
    C11     C    0.26037   0.79100   0.01147   1.000
    C12     C    0.76038   0.79097   0.01151   1.000
    C13     C    0.50596   0.26663   0.04479   1.000
    C14     C    0.00000   0.26663   0.04478   1.000
    C15     C    0.48185   0.23525   0.96107   1.000
    C16     C    0.98186   0.23526   0.96106   1.000
    C17     C    0.12236   0.17175   0.75066   1.000
    C18     C    0.62227   0.17155   0.75074   1.000
    C19     C    0.12019   0.27030   0.74234   1.000
    C20     C    0.62014   0.27011   0.74245   1.000
    C21     C    0.01177   0.29957   0.48877   1.000
    C22     C    0.51199   0.30070   0.48909   1.000
    C23     C    0.48994   0.20980   0.51124   1.000
    C24     C    0.25589   0.23380   0.95529   1.000
    C25     C    0.75591   0.23375   0.95535   1.000
    C26     C    0.23183   0.26607   0.03877   1.000
    C27     C    0.73185   0.26606   0.03881   1.000
    C28     C    0.37253   0.32864   0.24938   1.000
    C29     C    0.87257   0.32843   0.24950   1.000
    C30     C    0.37021   0.23008   0.25755   1.000
    C31     C    0.87024   0.22986   0.25759   1.000
    C32     C    0.26188   0.20049   0.51121   1.000
    C33     C    0.76173   0.19953   0.51111   1.000
    C34     C    0.23994   0.29097   0.48798   1.000
    C35     C    0.73993   0.29041   0.48884   1.000
    C36     C    0.99407   0.76665   0.45534   1.000
    C37     C    0.49412   0.76616   0.45522   1.000
    C38     C    0.01814   0.73522   0.53905   1.000
    C39     C    0.51810   0.73389   0.53871   1.000
    C40     C    0.37773   0.67176   0.74924   1.000
    C41     C    0.87709   0.67156   0.74941   1.000
    C42     C    0.37989   0.77032   0.75748   1.000
    C43     C    0.87974   0.77012   0.75742   1.000
    C44     C    0.48845   0.80019   0.01110   1.000
    C45     C    0.98846   0.80032   0.01109   1.000
    C46     C    0.01029   0.70949   0.98876   1.000
    C47     C    0.51029   0.70939   0.98878   1.000
loop_
    _geom_bond_atom_site_label_1
    _geom_bond_atom_site_label_2
    _geom_bond_distance
    _geom_bond_site_symmetry_2
    _ccdc_geom_bond_type
    C45    C46       1.54402  1_654   S
    C44    C47       1.54370  1_554   S
    C11    C9        1.54332  1_554   S
    C12    C10       1.54325  1_554   S
    C26    C24       1.54712  1_554   S
    C27    C25       1.54695  1_554   S
    C14    C16       1.50245  1_454   S
    C13    C15       1.54647  1_554   S
    C7     C5        1.54031      .   S
    C8     C6        1.54037      .   S
    C28    C30       1.54041      .   S
    C29    C31       1.54041      .   S
    C37    C39       1.54672      .   S
    C36    C38       1.54635  1_655   S
    C4     C2        1.54593      .   S
    C3     C1        1.54668      .   S
    C34    C32       1.54330      .   S
    C21    C0        1.54321  1_455   S
    C35    C33       1.54426      .   S
    C22    C23       1.54471      .   S
    C19    C17       1.54031      .   S
    C20    C18       1.54037      .   S
    C40    C42       1.54037      .   S
    C41    C43       1.54047      .   S
