# CIF file generated by openbabel 2.4.90, see http://openbabel.sf.net
data_I
_chemical_name_common ''
_cell_length_a 23.047
_cell_length_b 15.562
_cell_length_c 16.219
_cell_angle_alpha 89.978
_cell_angle_beta 89.974
_cell_angle_gamma 90.074
_space_group_name_H-M_alt 'P 1'
_space_group_name_Hall 'P 1'
loop_
    _symmetry_equiv_pos_as_xyz
    x,y,z
loop_
    _atom_site_label
    _atom_site_type_symbol
    _atom_site_fract_x
    _atom_site_fract_y
    _atom_site_fract_z
    _atom_site_occupancy
    Zr0     Zr   0.13189   0.76822   0.43366   1.000
    Zr1     Zr   0.63170   0.76740   0.43370   1.000
    Zr2     Zr   0.12563   0.79959   0.05070   1.000
    Zr3     Zr   0.62564   0.79949   0.05085   1.000
    Zr4     Zr   0.11829   0.23270   0.93364   1.000
    Zr5     Zr   0.61830   0.23254   0.93373   1.000
    Zr6     Zr   0.12460   0.20078   0.55068   1.000
    Zr7     Zr   0.62451   0.20049   0.55080   1.000
    Zr8     Zr   0.36810   0.26825   0.06636   1.000
    Zr9     Zr   0.86814   0.26821   0.06600   1.000
    Zr10    Zr   0.37477   0.29978   0.44920   1.000
    Zr11    Zr   0.87455   0.29910   0.44943   1.000
    Zr12    Zr   0.38172   0.73272   0.56626   1.000
    Zr13    Zr   0.88173   0.73169   0.56628   1.000
    Zr14    Zr   0.37562   0.70081   0.94917   1.000
    Zr15    Zr   0.87563   0.70081   0.94928   1.000
    N16     N    0.20276   0.00030   0.53415   1.000
    O17     O    0.09024   0.87942   0.87040   1.000
    O18     O    0.12109   0.08692   0.54361   1.000
    O19     O    0.13372   0.86330   0.47494   1.000
    N20     N    0.04817   0.00133   0.03353   1.000
    O21     O    0.12932   0.91348   0.04349   1.000
    O22     O    0.11775   0.13784   0.97555   1.000
    O23     O    0.15996   0.12074   0.37044   1.000
    N24     N    0.54818   0.00103   0.03364   1.000
    O25     O    0.65994   0.12063   0.37052   1.000
    O26     O    0.61772   0.13763   0.97556   1.000
    O27     O    0.62935   0.91334   0.04363   1.000
    N28     N    0.70185   0.99855   0.53360   1.000
    O29     O    0.62076   0.08658   0.54363   1.000
    O30     O    0.59008   0.87938   0.87058   1.000
    O31     O    0.63222   0.86229   0.47554   1.000
    N32     N    0.95290   0.49971   0.46583   1.000
    O33     O    0.87113   0.41299   0.45649   1.000
    O34     O    0.84024   0.62076   0.12972   1.000
    O35     O    0.88384   0.63664   0.52502   1.000
    N36     N    0.79719   0.50022   0.96589   1.000
    O37     O    0.90983   0.37929   0.62975   1.000
    O38     O    0.87899   0.58694   0.95644   1.000
    O39     O    0.86622   0.36321   0.02487   1.000
    N40     N    0.45212   0.50201   0.46645   1.000
    O41     O    0.34005   0.62084   0.12950   1.000
    O42     O    0.38228   0.63786   0.52438   1.000
    O43     O    0.37104   0.41357   0.45639   1.000
    N44     N    0.29714   0.50025   0.96585   1.000
    O45     O    0.37895   0.58697   0.95634   1.000
    O46     O    0.36619   0.36325   0.02484   1.000
    O47     O    0.40990   0.37940   0.62967   1.000
    C48     C    0.37137   0.27936   0.25346   1.000
    C49     C    0.00078   0.25430   0.50039   1.000
    C50     C    0.49390   0.25094   0.00293   1.000
    C51     C    0.99093   0.25095   0.00292   1.000
    C52     C    0.24935   0.74570   0.00004   1.000
    C53     C    0.24386   0.24993   0.99703   1.000
    C54     C    0.25614   0.74993   0.50292   1.000
    C55     C    0.75083   0.24497   0.49998   1.000
    C56     C    0.50096   0.25525   0.50017   1.000
    C57     C    0.62887   0.77910   0.24661   1.000
    C58     C    0.25091   0.24573   0.49960   1.000
    C59     C    0.99938   0.75490   0.99993   1.000
    C60     C    0.74936   0.74568   0.00008   1.000
    C61     C    0.37881   0.72104   0.75336   1.000
    C62     C    0.87842   0.72084   0.75342   1.000
    C63     C    0.12127   0.22102   0.74650   1.000
    C64     C    0.62121   0.22083   0.74659   1.000
    C65     C    0.87141   0.27914   0.25355   1.000
    C66     C    0.49937   0.75479   0.99994   1.000
    C67     C    0.75603   0.74909   0.50288   1.000
    C68     C    0.50611   0.75002   0.49697   1.000
    C69     C    0.00610   0.75094   0.49720   1.000
    C70     C    0.12880   0.77927   0.24650   1.000
    C71     C    0.74388   0.24990   0.99708   1.000
    C72     C    0.52416   0.72609   0.55910   1.000
    O73     O    0.51813   0.73402   0.53847   1.000
    O74     O    0.56305   0.73462   0.52338   1.000
    O75     O    0.47806   0.72759   0.57037   1.000
    C76     C    0.38084   0.79386   0.75912   1.000
    O77     O    0.38010   0.76977   0.75727   1.000
    O78     O    0.37936   0.77198   0.82435   1.000
    O79     O    0.38148   0.78308   0.69359   1.000
    C80     C    0.77426   0.77233   0.44050   1.000
    O81     O    0.76817   0.76462   0.46123   1.000
    O82     O    0.72812   0.77157   0.42936   1.000
    O83     O    0.81317   0.76360   0.47625   1.000
    C84     C    0.12763   0.85383   0.25151   1.000
    O85     O    0.12794   0.82887   0.25002   1.000
    O86     O    0.12602   0.84451   0.18427   1.000
    O87     O    0.12978   0.83452   0.31433   1.000
    C88     C    0.23373   0.67751   0.98347   1.000
    O89     O    0.27971   0.67666   0.96769   1.000
    O90     O    0.19504   0.70898   0.00620   1.000
    O91     O    0.23878   0.70028   0.98890   1.000
    C92     C    0.87687   0.64627   0.74844   1.000
    O93     O    0.87731   0.67123   0.74993   1.000
    O94     O    0.87900   0.66552   0.68560   1.000
    O95     O    0.87559   0.65568   0.81571   1.000
    C96     C    0.98806   0.77408   0.43491   1.000
    O97     O    0.94936   0.76444   0.47190   1.000
    O98     O    0.03463   0.77351   0.42534   1.000
    O99     O    0.99407   0.76643   0.45559   1.000
    C100    C    0.48810   0.77381   0.43485   1.000
    O101    O    0.53461   0.77309   0.42531   1.000
    O102    O    0.44939   0.76456   0.47186   1.000
    O103    O    0.49411   0.76595   0.45547   1.000
    C104    C    0.27428   0.77390   0.44073   1.000
    O105    O    0.26822   0.76595   0.46139   1.000
    O106    O    0.22820   0.77264   0.42945   1.000
    O107    O    0.31315   0.76540   0.47650   1.000
    C108    C    0.02426   0.72759   0.55946   1.000
    O109    O    0.01819   0.73534   0.53879   1.000
    O110    O    0.06320   0.73631   0.52364   1.000
    O111    O    0.97812   0.72815   0.57063   1.000
    C112    C    0.88082   0.79364   0.75902   1.000
    O113    O    0.88147   0.78261   0.69350   1.000
    O114    O    0.87937   0.77185   0.82431   1.000
    O115    O    0.87995   0.76956   0.75722   1.000
    C116    C    0.62775   0.85363   0.25175   1.000
    O117    O    0.62804   0.82868   0.25021   1.000
    O118    O    0.62612   0.84437   0.18449   1.000
    O119    O    0.62982   0.83412   0.31453   1.000
    C120    C    0.23805   0.72615   0.56502   1.000
    O121    O    0.28457   0.72689   0.57458   1.000
    O122    O    0.19939   0.73565   0.52802   1.000
    O123    O    0.24408   0.73400   0.54441   1.000
    C124    C    0.73789   0.72601   0.56515   1.000
    O125    O    0.78446   0.72654   0.57468   1.000
    O126    O    0.69922   0.73539   0.52815   1.000
    O127    O    0.74394   0.73364   0.54448   1.000
    C128    C    0.98388   0.82324   0.01608   1.000
    O129    O    0.98890   0.80043   0.01079   1.000
    O130    O    0.94514   0.79160   0.99353   1.000
    O131    O    0.02984   0.82410   0.03183   1.000
    C132    C    0.13084   0.70646   0.24085   1.000
    O133    O    0.12936   0.72834   0.17558   1.000
    O134    O    0.13152   0.71742   0.30638   1.000
    O135    O    0.13009   0.73054   0.24267   1.000
    C136    C    0.37764   0.64650   0.74822   1.000
    O137    O    0.37971   0.66601   0.68543   1.000
    O138    O    0.37606   0.65581   0.81550   1.000
    O139    O    0.37795   0.67145   0.74976   1.000
    C140    C    0.01530   0.68740   0.98235   1.000
    O141    O    0.01007   0.70980   0.98834   1.000
    O142    O    0.05431   0.71596   0.00634   1.000
    O143    O    0.97021   0.68472   0.96558   1.000
    C144    C    0.51530   0.68732   0.98234   1.000
    O145    O    0.51007   0.70971   0.98835   1.000
    O146    O    0.55431   0.71587   0.00637   1.000
    O147    O    0.47020   0.68467   0.96554   1.000
    C148    C    0.48388   0.82312   0.01615   1.000
    O149    O    0.48890   0.80031   0.01084   1.000
    O150    O    0.52985   0.82396   0.03196   1.000
    O151    O    0.44515   0.79153   0.99354   1.000
    C152    C    0.26544   0.81298   0.01803   1.000
    O153    O    0.30443   0.78441   0.99398   1.000
    O154    O    0.26015   0.79066   0.01189   1.000
    O155    O    0.22030   0.81566   0.03468   1.000
    C156    C    0.73375   0.67748   0.98352   1.000
    O157    O    0.73880   0.70026   0.98894   1.000
    O158    O    0.69506   0.70893   0.00628   1.000
    O159    O    0.77973   0.67664   0.96776   1.000
    C160    C    0.76544   0.81296   0.01806   1.000
    O161    O    0.76016   0.79064   0.01193   1.000
    O162    O    0.72031   0.81562   0.03473   1.000
    O163    O    0.80444   0.78440   0.99403   1.000
    C164    C    0.63085   0.70628   0.24082   1.000
    O165    O    0.63147   0.71705   0.30636   1.000
    O166    O    0.62938   0.72821   0.17560   1.000
    O167    O    0.63012   0.73037   0.24268   1.000
    C168    C    0.51200   0.27405   0.06519   1.000
    O169    O    0.55070   0.26462   0.02818   1.000
    O170    O    0.46541   0.27351   0.07473   1.000
    O171    O    0.50597   0.26642   0.04452   1.000
    C172    C    0.73493   0.31252   0.48242   1.000
    O173    O    0.78001   0.31519   0.46566   1.000
    O174    O    0.69590   0.28401   0.50643   1.000
    O175    O    0.74015   0.29010   0.48841   1.000
    C176    C    0.36920   0.20655   0.25921   1.000
    O177    O    0.37000   0.23063   0.25736   1.000
    O178    O    0.37077   0.22847   0.32444   1.000
    O179    O    0.36850   0.21748   0.19368   1.000
    C180    C    0.22575   0.27388   0.05923   1.000
    O181    O    0.18688   0.26539   0.02344   1.000
    O182    O    0.27182   0.27262   0.07052   1.000
    O183    O    0.23180   0.26594   0.03857   1.000
    C184    C    0.11923   0.29384   0.74066   1.000
    O185    O    0.12076   0.27195   0.67543   1.000
    O186    O    0.11998   0.26975   0.74254   1.000
    O187    O    0.11857   0.28307   0.80621   1.000
    C188    C    0.51663   0.32361   0.48414   1.000
    O189    O    0.47064   0.32448   0.46836   1.000
    O190    O    0.55528   0.29173   0.50661   1.000
    O191    O    0.51155   0.30079   0.48938   1.000
    C192    C    0.23492   0.31295   0.48130   1.000
    O193    O    0.24017   0.29065   0.48754   1.000
    O194    O    0.19586   0.28437   0.50538   1.000
    O195    O    0.28010   0.31569   0.46487   1.000
    C196    C    0.97573   0.22766   0.94055   1.000
    O197    O    0.98106   0.23538   0.96127   1.000
    O198    O    0.02187   0.22846   0.92938   1.000
    O199    O    0.93679   0.23636   0.97623   1.000
    C200    C    0.76193   0.22613   0.93498   1.000
    O201    O    0.71541   0.22684   0.92542   1.000
    O202    O    0.80059   0.23563   0.97189   1.000
    O203    O    0.75591   0.23398   0.95560   1.000
    C204    C    0.37267   0.35392   0.24837   1.000
    O205    O    0.37044   0.33457   0.18558   1.000
    O206    O    0.37431   0.34463   0.31561   1.000
    O207    O    0.37231   0.32896   0.24990   1.000
    C208    C    0.01636   0.32246   0.48353   1.000
    O209    O    0.01132   0.29970   0.48906   1.000
    O210    O    0.05508   0.29112   0.50622   1.000
    O211    O    0.97040   0.32326   0.46779   1.000
    C212    C    0.48488   0.18766   0.51761   1.000
    O213    O    0.44594   0.21623   0.49358   1.000
    O214    O    0.49016   0.21009   0.51165   1.000
    O215    O    0.52993   0.18481   0.53442   1.000
    C216    C    0.72577   0.27388   0.05927   1.000
    O217    O    0.73182   0.26593   0.03861   1.000
    O218    O    0.77184   0.27262   0.07046   1.000
    O219    O    0.68690   0.26534   0.02349   1.000
    C220    C    0.87271   0.35370   0.24851   1.000
    O221    O    0.87425   0.34428   0.31578   1.000
    O222    O    0.87052   0.33441   0.18559   1.000
    O223    O    0.87235   0.32874   0.25001   1.000
    C224    C    0.62235   0.14630   0.75177   1.000
    O225    O    0.62401   0.15558   0.68449   1.000
    O226    O    0.62205   0.17125   0.75022   1.000
    O227    O    0.62024   0.16582   0.81456   1.000
    C228    C    0.86924   0.20632   0.25922   1.000
    O229    O    0.87076   0.22810   0.32450   1.000
    O230    O    0.87003   0.23041   0.25740   1.000
    O231    O    0.86853   0.21732   0.19360   1.000
    C232    C    0.98474   0.18705   0.51871   1.000
    O233    O    0.99001   0.20936   0.51246   1.000
    O234    O    0.02992   0.18446   0.53507   1.000
    O235    O    0.94571   0.21559   0.49469   1.000
    C236    C    0.47572   0.22765   0.94056   1.000
    O237    O    0.52187   0.22841   0.92941   1.000
    O238    O    0.43677   0.23636   0.97633   1.000
    O239    O    0.48180   0.23537   0.96128   1.000
    C240    C    0.26192   0.22618   0.93492   1.000
    O241    O    0.21541   0.22693   0.92535   1.000
    O242    O    0.30058   0.23567   0.97194   1.000
    O243    O    0.25590   0.23402   0.95554   1.000
    C244    C    0.01003   0.27405   0.06518   1.000
    O245    O    0.04971   0.26467   0.02815   1.000
    O246    O    0.96444   0.27348   0.07464   1.000
    O247    O    0.00275   0.26642   0.04452   1.000
    C248    C    0.12246   0.14651   0.75171   1.000
    O249    O    0.12029   0.16602   0.81449   1.000
    O250    O    0.12214   0.17145   0.75015   1.000
    O251    O    0.12414   0.15580   0.68442   1.000
    C252    C    0.26642   0.17759   0.51645   1.000
    O253    O    0.26141   0.20035   0.51093   1.000
    O254    O    0.30518   0.20907   0.49374   1.000
    O255    O    0.22044   0.17674   0.53222   1.000
    C256    C    0.76630   0.17659   0.51610   1.000
    O257    O    0.80504   0.20825   0.49358   1.000
    O258    O    0.72031   0.17580   0.53187   1.000
    O259    O    0.76129   0.19942   0.51082   1.000
    C260    C    0.61920   0.29365   0.74078   1.000
    O261    O    0.61994   0.26956   0.74265   1.000
    O262    O    0.62070   0.27173   0.67555   1.000
    O263    O    0.61856   0.28288   0.80633   1.000
loop_
    _geom_bond_atom_site_label_1
    _geom_bond_atom_site_label_2
    _geom_bond_distance
    _geom_bond_site_symmetry_2
    _ccdc_geom_bond_type
    N16    O17       6.32239  1_545   S
    Zr2    O17       3.28060  1_554   S
    N16    O18       2.32172      .   S
    Zr6    O18       1.77743      .   S
    N16    O19       2.82749  1_545   S
    Zr0    O19       1.62476      .   S
    N20    O21       2.32371  1_545   S
    Zr2    O21       1.77808      .   S
    N20    O22       2.82084  1_554   S
    Zr4    O22       1.62500      .   S
    N20    O23       6.32130      .   S
    Zr6    O23       3.28089      .   S
    N24    O25       6.32140      .   S
    Zr7    O25       3.28087      .   S
    N24    O26       2.82192  1_554   S
    Zr5    O26       1.62515      .   S
    N24    O27       2.32266  1_545   S
    Zr3    O27       1.77755      .   S
    N28    O29       2.32430  1_565   S
    Zr7    O29       1.77856      .   S
    N28    O30       6.31779      .   S
    Zr3    O30       3.28143  1_554   S
    N28    O31       2.82006      .   S
    Zr1    O31       1.62543      .   S
    N32    O33       2.32171      .   S
    Zr11   O33       1.77794      .   S
    N32    O34       6.32666      .   S
    Zr15   O34       3.28249  1_556   S
    N32    O35       2.82912      .   S
    Zr13   O35       1.62460      .   S
    N36    O37       6.32546      .   S
    Zr11   O37       3.28236      .   S
    N36    O38       2.32216      .   S
    Zr15   O38       1.77770      .   S
    N36    O39       2.82848  1_556   S
    Zr9    O39       1.62249      .   S
    N40    O41       6.32253      .   S
    Zr14   O41       3.28141  1_556   S
    N40    O42       2.81990      .   S
    Zr12   O42       1.62524      .   S
    N40    O43       2.32518      .   S
    Zr10   O43       1.77680      .   S
    N44    O45       2.32222      .   S
    Zr14   O45       1.77712      .   S
    N44    O46       2.82882  1_556   S
    Zr8    O46       1.62490      .   S
    N44    O47       6.32677      .   S
    Zr10   O47       3.28041      .   S
    C72    O73       0.38288      .   S
    C68    O73       0.76955      .   S
    C72    O74       1.07512      .   S
    Zr1    O74       2.20773      .   S
    C72    O75       1.07830      .   S
    Zr12   O75       2.22305      .   S
    C76    O77       0.37651      .   S
    C61    O77       0.76159      .   S
    C76    O78       1.11186      .   S
    Zr14   O78       2.30878      .   S
    C76    O79       1.07608      .   S
    Zr12   O79       2.20921      .   S
    C80    O81       0.38338      .   S
    C67    O81       0.76986      .   S
    C80    O82       1.07887      .   S
    Zr1    O82       2.22401      .   S
    C80    O83       1.07680      .   S
    Zr13   O83       2.20886      .   S
    C84    O85       0.38934      .   S
    C70    O85       0.77435      .   S
    C84    O86       1.10091      .   S
    Zr2    O86       2.27659      .   S
    C84    O87       1.06339      .   S
    Zr0    O87       2.19348      .   S
    C88    O89       1.09025      .   S
    Zr14   O89       2.26140      .   S
    C88    O90       1.08244  1_556   S
    Zr2    O90       2.25260      .   S
    C88    O91       0.38317      .   S
    C52    O91       0.76891  1_554   S
    C92    O93       0.38940      .   S
    C62    O93       0.77445      .   S
    C92    O94       1.06335      .   S
    Zr13   O94       2.19266      .   S
    C92    O95       1.10126      .   S
    Zr15   O95       2.27762      .   S
    C96    O97       1.08491      .   S
    Zr13   O97       2.24218      .   S
    C96    O98       1.08453  1_655   S
    Zr0    O98       2.24721      .   S
    C96    O99       0.38197      .   S
    C69    O99       0.76855  1_455   S
    C100   O101      1.08304      .   S
    Zr1    O101      2.24370      .   S
    C100   O102      1.08450      .   S
    Zr12   O102      2.24001      .   S
    C100   O103      0.38215      .   S
    C68    O103      0.76883      .   S
    C104   O105      0.38340      .   S
    C54    O105      0.77007      .   S
    C104   O106      1.07788      .   S
    Zr0    O106      2.22176      .   S
    C104   O107      1.07572      .   S
    Zr12   O107      2.20884      .   S
    C108   O109      0.38273      .   S
    C69    O109      0.76931      .   S
    C108   O110      1.07730      .   S
    Zr0    O110      2.20858      .   S
    C108   O111      1.07868  1_455   S
    Zr13   O111      2.22331      .   S
    C112   O113      1.07652      .   S
    Zr13   O113      2.21070      .   S
    C112   O114      1.11233      .   S
    Zr15   O114      2.30984      .   S
    C112   O115      0.37641      .   S
    C62    O115      0.76151      .   S
    C116   O117      0.38917      .   S
    C57    O117      0.77419      .   S
    C116   O118      1.10116      .   S
    Zr3    O118      2.27752      .   S
    C116   O119      1.06351      .   S
    Zr1    O119      2.19416      .   S
    C120   O121      1.08349      .   S
    Zr12   O121      2.24466      .   S
    C120   O122      1.08461      .   S
    Zr0    O122      2.24124      .   S
    C120   O123      0.38204      .   S
    C54    O123      0.76870      .   S
    C124   O125      1.08442      .   S
    Zr13   O125      2.24721      .   S
    C124   O126      1.08468      .   S
    Zr1    O126      2.24048      .   S
    C124   O127      0.38183      .   S
    C67    O127      0.76831      .   S
    C128   O129      0.38335      .   S
    C59    O129      0.76927  1_556   S
    C128   O130      1.08283  1_554   S
    Zr15   O130      2.25244      .   S
    C128   O131      1.08993  1_655   S
    Zr2    O131      2.26167      .   S
    C132   O133      1.11242      .   S
    Zr2    O133      2.31043      .   S
    C132   O134      1.07657      .   S
    Zr0    O134      2.21090      .   S
    C132   O135      0.37638      .   S
    C70    O135      0.76144      .   S
    C136   O137      1.06360      .   S
    Zr12   O137      2.19405      .   S
    C136   O138      1.10144      .   S
    Zr14   O138      2.27850      .   S
    C136   O139      0.38910      .   S
    C61    O139      0.77412      .   S
    C140   O141      0.38161      .   S
    C59    O141      0.76756  1_655   S
    C140   O142      1.07538  1_556   S
    Zr2    O142      2.21582      .   S
    C140   O143      1.07502  1_455   S
    Zr15   O143      2.21040      .   S
    C144   O145      0.38148      .   S
    C66    O145      0.76735      .   S
    C144   O146      1.07566  1_556   S
    Zr3    O146      2.21649      .   S
    C144   O147      1.07530      .   S
    Zr14   O147      2.21079      .   S
    C148   O149      0.38337      .   S
    C66    O149      0.76921  1_556   S
    C148   O150      1.09020      .   S
    Zr3    O150      2.26173      .   S
    C148   O151      1.08287  1_554   S
    Zr14   O151      2.25276      .   S
    C152   O153      1.07632  1_554   S
    Zr14   O153      2.21758      .   S
    C152   O154      0.38118      .   S
    C52    O154      0.76696      .   S
    C152   O155      1.07545      .   S
    Zr2    O155      2.21103      .   S
    C156   O157      0.38315      .   S
    C60    O157      0.76888  1_554   S
    C156   O158      1.08246  1_556   S
    Zr3    O158      2.25250      .   S
    C156   O159      1.09018      .   S
    Zr15   O159      2.26128      .   S
    C160   O161      0.38120      .   S
    C60    O161      0.76697      .   S
    C160   O162      1.07553      .   S
    Zr3    O162      2.21122      .   S
    C160   O163      1.07617  1_554   S
    Zr15   O163      2.21719      .   S
    C164   O165      1.07618      .   S
    Zr1    O165      2.20931      .   S
    C164   O166      1.11193      .   S
    Zr3    O166      2.30878      .   S
    C164   O167      0.37649      .   S
    C57    O167      0.76156      .   S
    C168   O169      1.08503      .   S
    Zr5    O169      2.24125  1_556   S
    C168   O170      1.08480      .   S
    Zr8    O170      2.24829      .   S
    C168   O171      0.38184      .   S
    C50    O171      0.76846      .   S
    C172   O173      1.07455      .   S
    Zr11   O173      2.20917      .   S
    C172   O174      1.07517      .   S
    Zr7    O174      2.21529      .   S
    C172   O175      0.38171      .   S
    C55    O175      0.76772      .   S
    C176   O177      0.37642      .   S
    C48    O177      0.76150      .   S
    C176   O178      1.11231      .   S
    Zr10   O178      2.31010      .   S
    C176   O179      1.07640      .   S
    Zr8    O179      2.21072      .   S
    C180   O181      1.07566      .   S
    Zr4    O181      2.20905  1_556   S
    C180   O182      1.07770      .   S
    Zr8    O182      2.22123      .   S
    C180   O183      0.38350      .   S
    C53    O183      0.77028  1_556   S
    C184   O185      1.11207      .   S
    Zr6    O185      2.30870      .   S
    C184   O186      0.37651      .   S
    C63    O186      0.76156      .   S
    C184   O187      1.07643      .   S
    Zr4    O187      2.21006      .   S
    C188   O189      1.09060      .   S
    Zr10   O189      2.26377      .   S
    C188   O190      1.08349      .   S
    Zr7    O190      2.25422      .   S
    C188   O191      0.38324      .   S
    C56    O191      0.76934      .   S
    C192   O193      0.38137      .   S
    C58    O193      0.76714      .   S
    C192   O194      1.07657      .   S
    Zr6    O194      2.21860      .   S
    C192   O195      1.07554      .   S
    Zr10   O195      2.21060      .   S
    C196   O197      0.37749      .   S
    C51    O197      0.75287  1_554   S
    C196   O198      1.07880  1_655   S
    Zr4    O198      2.22404      .   S
    C196   O199      1.07623      .   S
    Zr9    O199      2.20663  1_554   S
    C200   O201      1.08331      .   S
    Zr5    O201      2.24404      .   S
    C200   O202      1.08380      .   S
    Zr9    O202      2.23852  1_554   S
    C200   O203      0.38213      .   S
    C71    O203      0.76886      .   S
    C204   O205      1.06331      .   S
    Zr8    O205      2.19286      .   S
    C204   O206      1.10076      .   S
    Zr10   O206      2.27607      .   S
    C204   O207      0.38928      .   S
    C48    O207      0.77431      .   S
    C208   O209      0.38326      .   S
    C49    O209      0.76898      .   S
    C208   O210      1.08208      .   S
    Zr6    O210      2.25162      .   S
    C208   O211      1.08983  1_455   S
    Zr11   O211      2.26012      .   S
    C212   O213      1.07520      .   S
    Zr10   O213      2.21477      .   S
    C212   O214      0.38191      .   S
    C56    O214      0.76803      .   S
    C212   O215      1.07469      .   S
    Zr7    O215      2.20917      .   S
    C216   O217      0.38349      .   S
    C71    O217      0.77023  1_556   S
    C216   O218      1.07757      .   S
    Zr9    O218      2.22172      .   S
    C216   O219      1.07567      .   S
    Zr5    O219      2.20908  1_556   S
    C220   O221      1.10146      .   S
    Zr11   O221      2.27862      .   S
    C220   O222      1.06501      .   S
    Zr9    O222      2.19731      .   S
    C220   O223      0.38925      .   S
    C65    O223      0.77428      .   S
    C224   O225      1.10134      .   S
    Zr7    O225      2.27796      .   S
    C224   O226      0.38908      .   S
    C64    O226      0.77410      .   S
    C224   O227      1.06387      .   S
    Zr5    O227      2.19492      .   S
    C228   O229      1.11240      .   S
    Zr11   O229      2.30983      .   S
    C228   O230      0.37645      .   S
    C65    O230      0.76153      .   S
    C228   O231      1.07815      .   S
    Zr9    O231      2.21556      .   S
    C232   O233      0.38134      .   S
    C49    O233      0.76709  1_455   S
    C232   O234      1.07557  1_655   S
    Zr6    O234      2.21120      .   S
    C232   O235      1.07668      .   S
    Zr11   O235      2.21878      .   S
    C236   O237      1.07898      .   S
    Zr5    O237      2.22434      .   S
    C236   O238      1.07723      .   S
    Zr8    O238      2.20996  1_554   S
    C236   O239      0.38345      .   S
    C50    O239      0.77007  1_554   S
    C240   O241      1.08333      .   S
    Zr4    O241      2.24424      .   S
    C240   O242      1.08461      .   S
    Zr8    O242      2.24161  1_554   S
    C240   O243      0.38215      .   S
    C53    O243      0.76893      .   S
    C244   O245      1.10385      .   S
    Zr4    O245      2.25725  1_556   S
    C244   O246      1.06164  1_455   S
    Zr9    O246      2.22538      .   S
    C244   O247      0.39325      .   S
    C51    O247      0.76643  1_655   S
    C248   O249      1.06378      .   S
    Zr4    O249      2.19437      .   S
    C248   O250      0.38901      .   S
    C63    O250      0.77402      .   S
    C248   O251      1.10152      .   S
    Zr6    O251      2.27903      .   S
    C252   O253      0.38326      .   S
    C58    O253      0.76900      .   S
    C252   O254      1.08247      .   S
    Zr10   O254      2.25371      .   S
    C252   O255      1.09018      .   S
    Zr6    O255      2.26054      .   S
    C256   O257      1.08251      .   S
    Zr11   O257      2.25169      .   S
    C256   O258      1.09019      .   S
    Zr7    O258      2.26255      .   S
    C256   O259      0.38334      .   S
    C55    O259      0.76933      .   S
    C260   O261      0.37650      .   S
    C64    O261      0.76158      .   S
    C260   O262      1.11214      .   S
    Zr7    O262      2.30926      .   S
    C260   O263      1.07628      .   S
    Zr5    O263      2.20961      .   S
