# CIF file generated by openbabel 2.4.90, see http://openbabel.sf.net
data_I
_chemical_name_common ''
_cell_length_a 23.047
_cell_length_b 15.562
_cell_length_c 16.219
_cell_angle_alpha 89.978
_cell_angle_beta 89.974
_cell_angle_gamma 90.074
_space_group_name_H-M_alt 'P 1'
_space_group_name_Hall 'P 1'
loop_
    _symmetry_equiv_pos_as_xyz
    x,y,z
loop_
    _atom_site_label
    _atom_site_type_symbol
    _atom_site_fract_x
    _atom_site_fract_y
    _atom_site_fract_z
    _atom_site_occupancy
    Zr0     Zr   0.13189   0.76822   0.43366   1.000
    Zr1     Zr   0.63170   0.76740   0.43370   1.000
    Zr2     Zr   0.12563   0.79959   0.05070   1.000
    Zr3     Zr   0.62564   0.79949   0.05085   1.000
    Zr4     Zr   0.11829   0.23270   0.93364   1.000
    Zr5     Zr   0.61830   0.23254   0.93373   1.000
    Zr6     Zr   0.12460   0.20078   0.55068   1.000
    Zr7     Zr   0.62451   0.20049   0.55080   1.000
    Zr8     Zr   0.36810   0.26825   0.06636   1.000
    Zr9     Zr   0.86814   0.26821   0.06600   1.000
    Zr10    Zr   0.37477   0.29978   0.44920   1.000
    Zr11    Zr   0.87455   0.29910   0.44943   1.000
    Zr12    Zr   0.38172   0.73272   0.56626   1.000
    Zr13    Zr   0.88173   0.73169   0.56628   1.000
    Zr14    Zr   0.37562   0.70081   0.94917   1.000
    Zr15    Zr   0.87563   0.70081   0.94928   1.000
    Zr16    Zr   0.24408   0.73379   0.54466   1.000
    Zr17    Zr   0.74394   0.73343   0.54474   1.000
    Zr18    Zr   0.26819   0.76607   0.46118   1.000
    Zr19    Zr   0.76812   0.76474   0.46102   1.000
    Zr20    Zr   0.12772   0.82855   0.25054   1.000
    Zr21    Zr   0.62782   0.82837   0.25074   1.000
    Zr22    Zr   0.12989   0.72999   0.24247   1.000
    Zr23    Zr   0.62991   0.72982   0.24248   1.000
    Zr24    Zr   0.23833   0.70040   0.98861   1.000
    Zr25    Zr   0.73834   0.70038   0.98865   1.000
    Zr26    Zr   0.26037   0.79100   0.01147   1.000
    Zr27    Zr   0.76038   0.79097   0.01151   1.000
    Zr28    Zr   0.50596   0.26663   0.04479   1.000
    Zr29    Zr   0.00000   0.26663   0.04478   1.000
    Zr30    Zr   0.48185   0.23525   0.96107   1.000
    Zr31    Zr   0.98186   0.23526   0.96106   1.000
    Zr32    Zr   0.12236   0.17175   0.75066   1.000
    Zr33    Zr   0.62227   0.17155   0.75074   1.000
    Zr34    Zr   0.12019   0.27030   0.74234   1.000
    Zr35    Zr   0.62014   0.27011   0.74245   1.000
    Zr36    Zr   0.01177   0.29957   0.48877   1.000
    Zr37    Zr   0.51199   0.30070   0.48909   1.000
    Zr38    Zr   0.48994   0.20980   0.51124   1.000
    Zr39    Zr   0.98979   0.20903   0.51202   1.000
    Zr40    Zr   0.25589   0.23380   0.95529   1.000
    Zr41    Zr   0.75591   0.23375   0.95535   1.000
    Zr42    Zr   0.23183   0.26607   0.03877   1.000
    Zr43    Zr   0.73185   0.26606   0.03881   1.000
    Zr44    Zr   0.37253   0.32864   0.24938   1.000
    Zr45    Zr   0.87257   0.32843   0.24950   1.000
    Zr46    Zr   0.37021   0.23008   0.25755   1.000
    Zr47    Zr   0.87024   0.22986   0.25759   1.000
    Zr48    Zr   0.26188   0.20049   0.51121   1.000
    Zr49    Zr   0.76173   0.19953   0.51111   1.000
    Zr50    Zr   0.23994   0.29097   0.48798   1.000
    Zr51    Zr   0.73993   0.29041   0.48884   1.000
    Zr52    Zr   0.99407   0.76665   0.45534   1.000
    Zr53    Zr   0.49412   0.76616   0.45522   1.000
    Zr54    Zr   0.01814   0.73522   0.53905   1.000
    Zr55    Zr   0.51810   0.73389   0.53871   1.000
    Zr56    Zr   0.37773   0.67176   0.74924   1.000
    Zr57    Zr   0.87709   0.67156   0.74941   1.000
    Zr58    Zr   0.37989   0.77032   0.75748   1.000
    Zr59    Zr   0.87974   0.77012   0.75742   1.000
    Zr60    Zr   0.48845   0.80019   0.01110   1.000
    Zr61    Zr   0.98846   0.80032   0.01109   1.000
    Zr62    Zr   0.01029   0.70949   0.98876   1.000
    Zr63    Zr   0.51029   0.70939   0.98878   1.000
    Zr64    Zr   0.18959   0.72210   0.54839   1.000
    Zr65    Zr   0.68941   0.72215   0.54858   1.000
    Zr66    Zr   0.28047   0.72255   0.60201   1.000
    Zr67    Zr   0.78032   0.72245   0.60214   1.000
    Zr68    Zr   0.32230   0.78108   0.45830   1.000
    Zr69    Zr   0.82242   0.77805   0.45773   1.000
    Zr70    Zr   0.23236   0.77455   0.40270   1.000
    Zr71    Zr   0.73224   0.77420   0.40275   1.000
    Zr72    Zr   0.13198   0.86218   0.32064   1.000
    Zr73    Zr   0.63209   0.86182   0.32092   1.000
    Zr74    Zr   0.12319   0.87078   0.18335   1.000
    Zr75    Zr   0.62333   0.87071   0.18360   1.000
    Zr76    Zr   0.13015   0.70085   0.16993   1.000
    Zr77    Zr   0.63016   0.70078   0.16991   1.000
    Zr78    Zr   0.13249   0.68854   0.31015   1.000
    Zr79    Zr   0.63249   0.68824   0.31008   1.000
    Zr80    Zr   0.27578   0.65082   0.95464   1.000
    Zr81    Zr   0.77580   0.65079   0.95471   1.000
    Zr82    Zr   0.18709   0.68131   0.00717   1.000
    Zr83    Zr   0.68710   0.68128   0.00721   1.000
    Zr84    Zr   0.22470   0.83708   0.05195   1.000
    Zr85    Zr   0.72471   0.83706   0.05196   1.000
    Zr86    Zr   0.31123   0.81087   0.99067   1.000
    Zr87    Zr   0.81124   0.81086   0.99071   1.000
    Zr88    Zr   0.06050   0.27788   0.04858   1.000
    Zr89    Zr   0.56050   0.27783   0.04860   1.000
    Zr90    Zr   0.46955   0.27768   0.10217   1.000
    Zr91    Zr   0.96958   0.27763   0.10219   1.000
    Zr92    Zr   0.42755   0.22191   0.95782   1.000
    Zr93    Zr   0.92757   0.22190   0.95782   1.000
    Zr94    Zr   0.01775   0.22582   0.90278   1.000
    Zr95    Zr   0.51776   0.22578   0.90279   1.000
    Zr96    Zr   0.11798   0.13837   0.82089   1.000
    Zr97    Zr   0.61796   0.13812   0.82096   1.000
    Zr98    Zr   0.12703   0.12941   0.68358   1.000
    Zr99    Zr   0.62683   0.12923   0.68362   1.000
    Zr100   Zr   0.11997   0.29933   0.66973   1.000
    Zr101   Zr   0.61990   0.29914   0.66986   1.000
    Zr102   Zr   0.11754   0.31188   0.80990   1.000
    Zr103   Zr   0.61756   0.31169   0.81002   1.000
    Zr104   Zr   0.47453   0.35092   0.45595   1.000
    Zr105   Zr   0.97432   0.34902   0.45467   1.000
    Zr106   Zr   0.06300   0.31879   0.50715   1.000
    Zr107   Zr   0.56336   0.31922   0.50737   1.000
    Zr108   Zr   0.02561   0.16295   0.55217   1.000
    Zr109   Zr   0.52546   0.16341   0.55168   1.000
    Zr110   Zr   0.43923   0.18979   0.48990   1.000
    Zr111   Zr   0.93881   0.18917   0.49193   1.000
    Zr112   Zr   0.31037   0.22208   0.95157   1.000
    Zr113   Zr   0.81038   0.22208   0.95160   1.000
    Zr114   Zr   0.21950   0.22265   0.89790   1.000
    Zr115   Zr   0.71950   0.22255   0.89799   1.000
    Zr116   Zr   0.17775   0.28109   0.04165   1.000
    Zr117   Zr   0.67776   0.28107   0.04169   1.000
    Zr118   Zr   0.26767   0.27448   0.09727   1.000
    Zr119   Zr   0.76769   0.27450   0.09731   1.000
    Zr120   Zr   0.36831   0.36221   0.17922   1.000
    Zr121   Zr   0.86854   0.36205   0.17934   1.000
    Zr122   Zr   0.37715   0.37090   0.31651   1.000
    Zr123   Zr   0.87702   0.37063   0.31668   1.000
    Zr124   Zr   0.36993   0.20100   0.33013   1.000
    Zr125   Zr   0.86999   0.20067   0.33014   1.000
    Zr126   Zr   0.36748   0.18857   0.18994   1.000
    Zr127   Zr   0.86749   0.18844   0.18994   1.000
    Zr128   Zr   0.22431   0.15098   0.54530   1.000
    Zr129   Zr   0.72415   0.14951   0.54448   1.000
    Zr130   Zr   0.31309   0.18132   0.49284   1.000
    Zr131   Zr   0.81302   0.18073   0.49270   1.000
    Zr132   Zr   0.27580   0.33706   0.44768   1.000
    Zr133   Zr   0.77563   0.33662   0.44836   1.000
    Zr134   Zr   0.18902   0.31082   0.50824   1.000
    Zr135   Zr   0.68924   0.31052   0.51006   1.000
    Zr136   Zr   0.43964   0.77790   0.45148   1.000
    Zr137   Zr   0.93958   0.77791   0.45149   1.000
    Zr138   Zr   0.03052   0.77768   0.39790   1.000
    Zr139   Zr   0.53054   0.77735   0.39784   1.000
    Zr140   Zr   0.07241   0.72184   0.54200   1.000
    Zr141   Zr   0.57219   0.71890   0.54160   1.000
    Zr142   Zr   0.48221   0.72548   0.59700   1.000
    Zr143   Zr   0.98222   0.72572   0.59732   1.000
    Zr144   Zr   0.38184   0.63834   0.67903   1.000
    Zr145   Zr   0.88053   0.63786   0.67924   1.000
    Zr146   Zr   0.37333   0.62942   0.81640   1.000
    Zr147   Zr   0.87298   0.62938   0.81668   1.000
    Zr148   Zr   0.38014   0.79939   0.83000   1.000
    Zr149   Zr   0.88020   0.79931   0.82994   1.000
    Zr150   Zr   0.38251   0.81189   0.68987   1.000
    Zr151   Zr   0.88252   0.81149   0.68970   1.000
    Zr152   Zr   0.02599   0.85031   0.04447   1.000
    Zr153   Zr   0.52600   0.85010   0.04468   1.000
    Zr154   Zr   0.43720   0.81907   0.99268   1.000
    Zr155   Zr   0.93718   0.81911   0.99268   1.000
    Zr156   Zr   0.47460   0.66323   0.94830   1.000
    Zr157   Zr   0.97462   0.66328   0.94833   1.000
    Zr158   Zr   0.06100   0.68944   0.00995   1.000
    Zr159   Zr   0.56100   0.68934   0.00995   1.000
    O160    O    0.15636   0.74045   0.02893   1.000
    O161    O    0.21271   0.69085   0.99789   1.000
    O162    O    0.65637   0.74038   0.02903   1.000
    O163    O    0.71272   0.69083   0.99793   1.000
    O164    O    0.59332   0.74441   0.03040   1.000
    O165    O    0.53565   0.69937   0.99937   1.000
    O166    O    0.09331   0.74451   0.03033   1.000
    O167    O    0.03564   0.69946   0.99935   1.000
    O168    O    0.00723   0.82531   0.02778   1.000
    O169    O    0.99938   0.75490   0.99993   1.000
    O170    O    0.96282   0.80971   0.00189   1.000
    O171    O    0.50723   0.82514   0.02789   1.000
    O172    O    0.49937   0.75479   0.99994   1.000
    O173    O    0.46283   0.80963   0.00189   1.000
    O174    O    0.24254   0.81404   0.03171   1.000
    O175    O    0.24935   0.74570   0.00004   1.000
    O176    O    0.28580   0.80093   0.00107   1.000
    O177    O    0.74255   0.81402   0.03173   1.000
    O178    O    0.74936   0.74568   0.00008   1.000
    O179    O    0.78581   0.80091   0.00111   1.000
    O180    O    0.20479   0.27358   0.04021   1.000
    O181    O    0.24975   0.27028   0.06802   1.000
    O182    O    0.24386   0.24993   0.99703   1.000
    O183    O    0.70481   0.27356   0.04025   1.000
    O184    O    0.74977   0.27028   0.06806   1.000
    O185    O    0.74388   0.24990   0.99708   1.000
    O186    O    0.14802   0.25690   0.98765   1.000
    O187    O    0.64803   0.25681   0.98771   1.000
    O188    O    0.03025   0.27226   0.04668   1.000
    O189    O    0.98479   0.27213   0.07348   1.000
    O190    O    0.99093   0.25095   0.00292   1.000
    O191    O    0.53323   0.27223   0.04670   1.000
    O192    O    0.48775   0.27216   0.07348   1.000
    O193    O    0.49390   0.25094   0.00293   1.000
    O194    O    0.08939   0.25529   0.99111   1.000
    O195    O    0.58940   0.25519   0.99117   1.000
    O196    O    0.17516   0.81833   0.05133   1.000
    O197    O    0.12441   0.83518   0.11703   1.000
    O198    O    0.67518   0.81828   0.05140   1.000
    O199    O    0.62449   0.83510   0.11723   1.000
    O200    O    0.81792   0.27135   0.08166   1.000
    O201    O    0.86834   0.31513   0.12267   1.000
    O202    O    0.86782   0.22832   0.12797   1.000
    O203    O    0.83926   0.24514   0.00880   1.000
    O204    O    0.89786   0.24505   0.01191   1.000
    O205    O    0.31788   0.27137   0.08181   1.000
    O206    O    0.36821   0.31523   0.12279   1.000
    O207    O    0.36779   0.22841   0.12815   1.000
    O208    O    0.33923   0.24516   0.00897   1.000
    O209    O    0.39783   0.24508   0.01209   1.000
    O210    O    0.63004   0.71530   0.20620   1.000
    O211    O    0.13002   0.71542   0.20620   1.000
    O212    O    0.37042   0.34543   0.21430   1.000
    O213    O    0.87055   0.34524   0.21442   1.000
    O214    O    0.12546   0.84966   0.21694   1.000
    O215    O    0.62557   0.84954   0.21717   1.000
    O216    O    0.86887   0.20915   0.22376   1.000
    O217    O    0.36884   0.20932   0.22375   1.000
    O218    O    0.12880   0.77927   0.24650   1.000
    O219    O    0.13119   0.70926   0.27631   1.000
    O220    O    0.62887   0.77910   0.24661   1.000
    O221    O    0.63120   0.70903   0.27628   1.000
    O222    O    0.37137   0.27936   0.25346   1.000
    O223    O    0.37484   0.34977   0.28295   1.000
    O224    O    0.87141   0.27914   0.25355   1.000
    O225    O    0.87479   0.34953   0.28309   1.000
    O226    O    0.12985   0.84536   0.28559   1.000
    O227    O    0.62996   0.84510   0.28583   1.000
    O228    O    0.37007   0.21554   0.29384   1.000
    O229    O    0.87012   0.21526   0.29386   1.000
    O230    O    0.63209   0.72782   0.37189   1.000
    O231    O    0.13219   0.72838   0.37191   1.000
    O232    O    0.37596   0.33534   0.38286   1.000
    O233    O    0.87579   0.33486   0.38306   1.000
    O234    O    0.13193   0.81520   0.37715   1.000
    O235    O    0.63190   0.81461   0.37731   1.000
    O236    O    0.51233   0.77176   0.42653   1.000
    O237    O    0.01229   0.77216   0.42662   1.000
    O238    O    0.18212   0.77139   0.41818   1.000
    O239    O    0.25027   0.77031   0.43194   1.000
    O240    O    0.68197   0.77080   0.41823   1.000
    O241    O    0.75018   0.76947   0.43189   1.000
    O242    O    0.10215   0.74503   0.48783   1.000
    O243    O    0.16074   0.74516   0.49103   1.000
    O244    O    0.60194   0.74315   0.48765   1.000
    O245    O    0.66055   0.74478   0.49114   1.000
    O246    O    0.32528   0.31842   0.44844   1.000
    O247    O    0.25787   0.31402   0.46783   1.000
    O248    O    0.82509   0.31786   0.44889   1.000
    O249    O    0.75778   0.31351   0.46860   1.000
    O250    O    0.40700   0.24479   0.46955   1.000
    O251    O    0.34393   0.24055   0.47102   1.000
    O252    O    0.90668   0.24413   0.47068   1.000
    O253    O    0.84378   0.23992   0.47107   1.000
    O254    O    0.46688   0.77203   0.45335   1.000
    O255    O    0.41068   0.75531   0.50887   1.000
    O256    O    0.96682   0.77228   0.45342   1.000
    O257    O    0.91066   0.75480   0.50889   1.000
    O258    O    0.99304   0.32430   0.47172   1.000
    O259    O    0.50611   0.75002   0.49697   1.000
    O260    O    0.00610   0.75094   0.49720   1.000
    O261    O    0.49326   0.32581   0.47252   1.000
    O262    O    0.79527   0.77140   0.45938   1.000
    O263    O    0.85208   0.75487   0.51200   1.000
    O264    O    0.29525   0.77357   0.45974   1.000
    O265    O    0.35201   0.75690   0.51228   1.000
    O266    O    0.75603   0.74909   0.50288   1.000
    O267    O    0.25614   0.74993   0.50292   1.000
    O268    O    0.21448   0.30089   0.49811   1.000
    O269    O    0.25091   0.24573   0.49960   1.000
    O270    O    0.03738   0.30918   0.49796   1.000
    O271    O    0.00078   0.25430   0.50039   1.000
    O272    O    0.71458   0.30046   0.49945   1.000
    O273    O    0.75083   0.24497   0.49998   1.000
    O274    O    0.53768   0.30996   0.49823   1.000
    O275    O    0.50096   0.25525   0.50017   1.000
    O276    O    0.46458   0.19979   0.50057   1.000
    O277    O    0.96430   0.19910   0.50198   1.000
    O278    O    0.78737   0.19013   0.50191   1.000
    O279    O    0.28748   0.19090   0.50203   1.000
    O280    O    0.09380   0.25978   0.52892   1.000
    O281    O    0.59394   0.25985   0.52908   1.000
    O282    O    0.15681   0.25580   0.52946   1.000
    O283    O    0.65687   0.25550   0.53043   1.000
    O284    O    0.74294   0.17452   0.52780   1.000
    O285    O    0.24309   0.17573   0.52826   1.000
    O286    O    0.50770   0.18660   0.53146   1.000
    O287    O    0.00770   0.18599   0.53209   1.000
    O288    O    0.54514   0.72639   0.54016   1.000
    O289    O    0.50015   0.72968   0.56785   1.000
    O290    O    0.04527   0.72853   0.54053   1.000
    O291    O    0.00018   0.73047   0.56818   1.000
    O292    O    0.21684   0.72795   0.54653   1.000
    O293    O    0.26228   0.72817   0.57334   1.000
    O294    O    0.71667   0.72779   0.54666   1.000
    O295    O    0.76213   0.72794   0.57344   1.000
    O296    O    0.07511   0.18186   0.55143   1.000
    O297    O    0.12582   0.16509   0.61713   1.000
    O298    O    0.57499   0.18195   0.55124   1.000
    O299    O    0.62567   0.16486   0.61721   1.000
    O300    O    0.43196   0.72910   0.58163   1.000
    O301    O    0.38178   0.68553   0.62265   1.000
    O302    O    0.38211   0.77230   0.62807   1.000
    O303    O    0.93198   0.72871   0.58180   1.000
    O304    O    0.88113   0.68478   0.62276   1.000
    O305    O    0.88213   0.77159   0.62799   1.000
    O306    O    0.12008   0.28481   0.70604   1.000
    O307    O    0.62002   0.28462   0.70615   1.000
    O308    O    0.37979   0.65505   0.71414   1.000
    O309    O    0.87881   0.65471   0.71432   1.000
    O310    O    0.12470   0.15058   0.71712   1.000
    O311    O    0.62455   0.15039   0.71718   1.000
    O312    O    0.88113   0.79080   0.72356   1.000
    O313    O    0.38120   0.79110   0.72368   1.000
    O314    O    0.12127   0.22102   0.74650   1.000
    O315    O    0.11887   0.29109   0.77612   1.000
    O316    O    0.62121   0.22083   0.74659   1.000
    O317    O    0.61885   0.29090   0.77624   1.000
    O318    O    0.37881   0.72104   0.75336   1.000
    O319    O    0.37553   0.65059   0.78282   1.000
    O320    O    0.87842   0.72084   0.75342   1.000
    O321    O    0.87504   0.65047   0.78304   1.000
    O322    O    0.12017   0.15506   0.78578   1.000
    O323    O    0.62012   0.15484   0.78585   1.000
    O324    O    0.87997   0.78472   0.79368   1.000
    O325    O    0.38001   0.78485   0.79374   1.000
    O326    O    0.11791   0.27229   0.87177   1.000
    O327    O    0.61793   0.27212   0.87187   1.000
    O328    O    0.37447   0.66511   0.88278   1.000
    O329    O    0.87431   0.66509   0.88298   1.000
    O330    O    0.11813   0.18554   0.87727   1.000
    O331    O    0.61813   0.18533   0.87735   1.000
    O332    O    0.23770   0.22822   0.92660   1.000
    O333    O    0.73770   0.22815   0.92667   1.000
    O334    O    0.06802   0.22926   0.91821   1.000
    O335    O    0.99980   0.23054   0.93192   1.000
    O336    O    0.56803   0.22916   0.91826   1.000
    O337    O    0.49980   0.23052   0.93193   1.000
    O338    O    0.42511   0.68202   0.94873   1.000
    O339    O    0.49245   0.68631   0.96854   1.000
    O340    O    0.92513   0.68205   0.94881   1.000
    O341    O    0.99245   0.68638   0.96855   1.000
    O342    O    0.34343   0.75584   0.96992   1.000
    O343    O    0.40641   0.75994   0.97093   1.000
    O344    O    0.84344   0.75584   0.96999   1.000
    O345    O    0.90641   0.75996   0.97098   1.000
    O346    O    0.28313   0.22794   0.95343   1.000
    O347    O    0.78314   0.22791   0.95348   1.000
    O348    O    0.25705   0.67561   0.97163   1.000
    O349    O    0.75707   0.67558   0.97168   1.000
    O350    O    0.95472   0.22858   0.95944   1.000
    O351    O    0.45470   0.22858   0.95945   1.000
    O352    O    0.33109   0.72763   0.58414   1.000
    O353    O    0.83103   0.72707   0.58421   1.000
    O354    O    0.12789   0.75022   0.11031   1.000
    O355    O    0.62790   0.75014   0.11038   1.000
    O356    O    0.32570   0.67581   0.95191   1.000
    O357    O    0.82572   0.67580   0.95199   1.000
    O358    O    0.41882   0.27297   0.08427   1.000
    O359    O    0.91886   0.27292   0.08410   1.000
    O360    O    0.12228   0.25006   0.61021   1.000
    O361    O    0.62220   0.24981   0.61033   1.000
    O362    O    0.42465   0.32535   0.45258   1.000
    O363    O    0.92444   0.32406   0.45205   1.000
    O364    O    0.16889   0.22768   0.91577   1.000
    O365    O    0.66890   0.22755   0.91586   1.000
    O366    O    0.37235   0.25039   0.38966   1.000
    O367    O    0.87227   0.24988   0.38978   1.000
    O368    O    0.17446   0.17588   0.54799   1.000
    O369    O    0.67433   0.17500   0.54764   1.000
    O370    O    0.08121   0.77295   0.41578   1.000
    O371    O    0.58112   0.77238   0.41577   1.000
    O372    O    0.37788   0.75010   0.88959   1.000
    O373    O    0.87792   0.75006   0.88961   1.000
    O374    O    0.07581   0.82495   0.04759   1.000
    O375    O    0.57582   0.82479   0.04777   1.000
    N376    N    0.20276   0.00030   0.53415   1.000
    O377    O    0.09024   0.87942   0.87040   1.000
    O378    O    0.12109   0.08692   0.54361   1.000
    O379    O    0.13372   0.86330   0.47494   1.000
    N380    N    0.04817   0.00133   0.03353   1.000
    O381    O    0.12932   0.91348   0.04349   1.000
    O382    O    0.11775   0.13784   0.97555   1.000
    O383    O    0.15996   0.12074   0.37044   1.000
    N384    N    0.54818   0.00103   0.03364   1.000
    O385    O    0.65994   0.12063   0.37052   1.000
    O386    O    0.61772   0.13763   0.97556   1.000
    O387    O    0.62935   0.91334   0.04363   1.000
    N388    N    0.70185   0.99855   0.53360   1.000
    O389    O    0.62076   0.08658   0.54363   1.000
    O390    O    0.59008   0.87938   0.87058   1.000
    O391    O    0.63222   0.86229   0.47554   1.000
    N392    N    0.95290   0.49971   0.46583   1.000
    O393    O    0.87113   0.41299   0.45649   1.000
    O394    O    0.84024   0.62076   0.12972   1.000
    O395    O    0.88384   0.63664   0.52502   1.000
    N396    N    0.79719   0.50022   0.96589   1.000
    O397    O    0.90983   0.37929   0.62975   1.000
    O398    O    0.87899   0.58694   0.95644   1.000
    O399    O    0.86622   0.36321   0.02487   1.000
    N400    N    0.45212   0.50201   0.46645   1.000
    O401    O    0.34005   0.62084   0.12950   1.000
    O402    O    0.38228   0.63786   0.52438   1.000
    O403    O    0.37104   0.41357   0.45639   1.000
    N404    N    0.29714   0.50025   0.96585   1.000
    O405    O    0.37895   0.58697   0.95634   1.000
    O406    O    0.36619   0.36325   0.02484   1.000
    O407    O    0.40990   0.37940   0.62967   1.000
loop_
    _geom_bond_atom_site_label_1
    _geom_bond_atom_site_label_2
    _geom_bond_distance
    _geom_bond_site_symmetry_2
    _ccdc_geom_bond_type
    Zr82   O160      1.21449      .   S
    Zr2    O160      1.21449      .   S
    Zr82   O161      0.62692  1_554   S
    Zr24   O161      0.62692      .   S
    Zr83   O162      1.21432      .   S
    Zr3    O162      1.21432      .   S
    Zr83   O163      0.62692  1_554   S
    Zr25   O163      0.62692      .   S
    Zr159  O164      1.18247      .   S
    Zr3    O164      1.18247      .   S
    Zr159  O165      0.62895  1_554   S
    Zr63   O165      0.62895      .   S
    Zr158  O166      1.18209      .   S
    Zr2    O166      1.18209      .   S
    Zr158  O167      0.62900  1_554   S
    Zr62   O167      0.62900      .   S
    Zr61   O168      0.64136  1_655   S
    Zr152  O168      0.64136      .   S
    Zr61   O169      0.77201  1_554   S
    Zr62   O169      0.77201  1_455   S
    Zr61   O170      0.62710      .   S
    Zr155  O170      0.62710  1_556   S
    Zr60   O171      0.64181      .   S
    Zr153  O171      0.64181      .   S
    Zr60   O172      0.77185  1_554   S
    Zr63   O172      0.77185      .   S
    Zr60   O173      0.62694      .   S
    Zr154  O173      0.62694  1_556   S
    Zr26   O174      0.63690      .   S
    Zr84   O174      0.63690      .   S
    Zr26   O175      0.77166      .   S
    Zr24   O175      0.77166  1_556   S
    Zr26   O176      0.62893      .   S
    Zr86   O176      0.62893  1_556   S
    Zr27   O177      0.63689      .   S
    Zr85   O177      0.63689      .   S
    Zr27   O178      0.77162      .   S
    Zr25   O178      0.77162  1_556   S
    Zr27   O179      0.62892      .   S
    Zr87   O179      0.62892  1_556   S
    Zr42   O180      0.63465      .   S
    Zr116  O180      0.63465      .   S
    Zr42   O181      0.63248      .   S
    Zr118  O181      0.63248      .   S
    Zr42   O182      0.77356  1_554   S
    Zr40   O182      0.77356      .   S
    Zr43   O183      0.63467      .   S
    Zr117  O183      0.63467      .   S
    Zr43   O184      0.63255      .   S
    Zr119  O184      0.63255      .   S
    Zr43   O185      0.77348  1_554   S
    Zr41   O185      0.77348      .   S
    Zr116  O186      1.17415  1_554   S
    Zr4    O186      1.17415      .   S
    Zr117  O187      1.17419  1_554   S
    Zr5    O187      1.17419      .   S
    Zr29   O188      0.70325      .   S
    Zr88   O188      0.70325      .   S
    Zr29   O189      0.58899  1_455   S
    Zr91   O189      0.58899      .   S
    Zr29   O190      0.75123  1_455   S
    Zr31   O190      0.75123  1_556   S
    Zr28   O191      0.63520      .   S
    Zr89   O191      0.63520      .   S
    Zr28   O192      0.63242      .   S
    Zr90   O192      0.63242      .   S
    Zr28   O193      0.77324      .   S
    Zr30   O193      0.77324  1_556   S
    Zr88   O194      1.19836  1_554   S
    Zr4    O194      1.19836      .   S
    Zr89   O195      1.19826  1_554   S
    Zr5    O195      1.19826      .   S
    Zr2    O196      1.17800      .   S
    Zr84   O196      1.17800      .   S
    Zr2    O197      1.21048      .   S
    Zr74   O197      1.21048      .   S
    Zr3    O198      1.17806      .   S
    Zr85   O198      1.17806      .   S
    Zr3    O199      1.21129      .   S
    Zr75   O199      1.21129      .   S
    Zr9    O200      1.18602      .   S
    Zr119  O200      1.18602      .   S
    Zr9    O201      1.17410      .   S
    Zr121  O201      1.17410      .   S
    Zr9    O202      1.18111      .   S
    Zr127  O202      1.18111      .   S
    Zr9    O203      1.19698      .   S
    Zr113  O203      1.19698  1_556   S
    Zr9    O204      1.16995      .   S
    Zr93   O204      1.16995  1_556   S
    Zr8    O205      1.18514      .   S
    Zr118  O205      1.18514      .   S
    Zr8    O206      1.17162      .   S
    Zr120  O206      1.17162      .   S
    Zr8    O207      1.17826      .   S
    Zr126  O207      1.17826      .   S
    Zr8    O208      1.19937      .   S
    Zr112  O208      1.19937  1_556   S
    Zr8    O209      1.17236      .   S
    Zr92   O209      1.17236  1_556   S
    Zr77   O210      0.63047      .   S
    Zr23   O210      0.63047      .   S
    Zr76   O211      0.63052      .   S
    Zr22   O211      0.63052      .   S
    Zr120  O212      0.62790      .   S
    Zr44   O212      0.62790      .   S
    Zr121  O213      0.62789      .   S
    Zr45   O213      0.62789      .   S
    Zr74   O214      0.63837      .   S
    Zr20   O214      0.63837      .   S
    Zr75   O215      0.63843      .   S
    Zr21   O215      0.63843      .   S
    Zr127  O216      0.63715      .   S
    Zr47   O216      0.63715      .   S
    Zr126  O217      0.63720      .   S
    Zr46   O217      0.63720      .   S
    Zr22   O218      0.77015      .   S
    Zr20   O218      0.77015      .   S
    Zr22   O219      0.63723      .   S
    Zr78   O219      0.63723      .   S
    Zr23   O220      0.77019      .   S
    Zr21   O220      0.77019      .   S
    Zr23   O221      0.63716      .   S
    Zr79   O221      0.63716      .   S
    Zr44   O222      0.77020      .   S
    Zr46   O222      0.77020      .   S
    Zr44   O223      0.63833      .   S
    Zr122  O223      0.63833      .   S
    Zr45   O224      0.77020      .   S
    Zr47   O224      0.77020      .   S
    Zr45   O225      0.63827      .   S
    Zr123  O225      0.63827      .   S
    Zr20   O226      0.62784      .   S
    Zr72   O226      0.62784      .   S
    Zr21   O227      0.62784      .   S
    Zr73   O227      0.62784      .   S
    Zr46   O228      0.63051      .   S
    Zr124  O228      0.63051      .   S
    Zr47   O229      0.63057      .   S
    Zr125  O229      0.63057      .   S
    Zr79   O230      1.17684      .   S
    Zr1    O230      1.17684      .   S
    Zr78   O231      1.17820      .   S
    Zr0    O231      1.17820      .   S
    Zr122  O232      1.21011      .   S
    Zr10   O232      1.21011      .   S
    Zr123  O233      1.21203      .   S
    Zr11   O233      1.21203      .   S
    Zr72   O234      1.17220      .   S
    Zr0    O234      1.17220      .   S
    Zr73   O235      1.17292      .   S
    Zr1    O235      1.17292      .   S
    Zr139  O236      0.63246      .   S
    Zr53   O236      0.63246      .   S
    Zr138  O237      0.63288      .   S
    Zr52   O237      0.63288  1_655   S
    Zr70   O238      1.18551      .   S
    Zr0    O238      1.18551      .   S
    Zr70   O239      0.63244      .   S
    Zr18   O239      0.63244      .   S
    Zr71   O240      1.18643      .   S
    Zr1    O240      1.18643      .   S
    Zr71   O241      0.63238      .   S
    Zr19   O241      0.63238      .   S
    Zr0    O242      1.17072      .   S
    Zr140  O242      1.17072      .   S
    Zr0    O243      1.19892      .   S
    Zr64   O243      1.19892      .   S
    Zr1    O244      1.17345      .   S
    Zr141  O244      1.17345      .   S
    Zr1    O245      1.19790      .   S
    Zr65   O245      1.19790      .   S
    Zr132  O246      1.17717      .   S
    Zr10   O246      1.17717      .   S
    Zr132  O247      0.63687      .   S
    Zr50   O247      0.63687      .   S
    Zr133  O248      1.17714      .   S
    Zr11   O248      1.17714      .   S
    Zr133  O249      0.63699      .   S
    Zr51   O249      0.63699      .   S
    Zr10   O250      1.18104      .   S
    Zr110  O250      1.18104      .   S
    Zr10   O251      1.21572      .   S
    Zr130  O251      1.21572      .   S
    Zr11   O252      1.18337      .   S
    Zr111  O252      1.18337      .   S
    Zr11   O253      1.21327      .   S
    Zr131  O253      1.21327      .   S
    Zr136  O254      0.63520      .   S
    Zr53   O254      0.63520      .   S
    Zr136  O255      1.19757      .   S
    Zr12   O255      1.19757      .   S
    Zr137  O256      0.63485      .   S
    Zr52   O256      0.63485      .   S
    Zr137  O257      1.19952      .   S
    Zr13   O257      1.19952      .   S
    Zr105  O258      0.64126      .   S
    Zr36   O258      0.64126  1_455   S
    Zr53   O259      0.77336      .   S
    Zr55   O259      0.77336      .   S
    Zr52   O260      0.77318  1_655   S
    Zr54   O260      0.77318      .   S
    Zr104  O261      0.64164      .   S
    Zr37   O261      0.64164      .   S
    Zr69   O262      0.63466      .   S
    Zr19   O262      0.63466      .   S
    Zr69   O263      1.17178      .   S
    Zr13   O263      1.17178      .   S
    Zr68   O264      0.63471      .   S
    Zr18   O264      0.63471      .   S
    Zr68   O265      1.17380      .   S
    Zr12   O265      1.17380      .   S
    Zr19   O266      0.77296      .   S
    Zr17   O266      0.77296      .   S
    Zr18   O267      0.77334      .   S
    Zr16   O267      0.77334      .   S
    Zr50   O268      0.62882      .   S
    Zr134  O268      0.62882      .   S
    Zr50   O269      0.77165      .   S
    Zr48   O269      0.77165      .   S
    Zr36   O270      0.62687      .   S
    Zr106  O270      0.62687      .   S
    Zr36   O271      0.77160      .   S
    Zr39   O271      0.77160  1_655   S
    Zr51   O272      0.62881      .   S
    Zr135  O272      0.62881      .   S
    Zr51   O273      0.77213      .   S
    Zr49   O273      0.77213      .   S
    Zr37   O274      0.62697      .   S
    Zr107  O274      0.62697      .   S
    Zr37   O275      0.77235      .   S
    Zr38   O275      0.77235      .   S
    Zr110  O276      0.62897      .   S
    Zr38   O276      0.62897      .   S
    Zr111  O277      0.62880      .   S
    Zr39   O277      0.62880      .   S
    Zr131  O278      0.62696      .   S
    Zr49   O278      0.62696      .   S
    Zr130  O279      0.62680      .   S
    Zr48   O279      0.62680      .   S
    Zr106  O280      1.21381      .   S
    Zr6    O280      1.21381      .   S
    Zr107  O281      1.21474      .   S
    Zr7    O281      1.21474      .   S
    Zr134  O282      1.18338      .   S
    Zr6    O282      1.18338      .   S
    Zr135  O283      1.18172      .   S
    Zr7    O283      1.18172      .   S
    Zr49   O284      0.64157      .   S
    Zr129  O284      0.64157      .   S
    Zr48   O285      0.64153      .   S
    Zr128  O285      0.64153      .   S
    Zr38   O286      0.63703      .   S
    Zr109  O286      0.63703      .   S
    Zr39   O287      0.63672  1_655   S
    Zr108  O287      0.63672      .   S
    Zr55   O288      0.63467      .   S
    Zr141  O288      0.63467      .   S
    Zr55   O289      0.63131      .   S
    Zr142  O289      0.63131      .   S
    Zr54   O290      0.63452      .   S
    Zr140  O290      0.63452      .   S
    Zr54   O291      0.63230      .   S
    Zr143  O291      0.63230  1_655   S
    Zr16   O292      0.63515      .   S
    Zr64   O292      0.63515      .   S
    Zr16   O293      0.63246      .   S
    Zr66   O293      0.63246      .   S
    Zr17   O294      0.63517      .   S
    Zr65   O294      0.63517      .   S
    Zr17   O295      0.63245      .   S
    Zr67   O295      0.63245      .   S
    Zr6    O296      1.17780      .   S
    Zr108  O296      1.17780      .   S
    Zr6    O297      1.21258      .   S
    Zr98   O297      1.21258      .   S
    Zr7    O298      1.17689      .   S
    Zr109  O298      1.17689      .   S
    Zr7    O299      1.21158      .   S
    Zr99   O299      1.21158      .   S
    Zr12   O300      1.18603      .   S
    Zr142  O300      1.18603      .   S
    Zr12   O301      1.17265      .   S
    Zr144  O301      1.17265      .   S
    Zr12   O302      1.17682      .   S
    Zr150  O302      1.17682      .   S
    Zr13   O303      1.18614      .   S
    Zr143  O303      1.18614      .   S
    Zr13   O304      1.17123      .   S
    Zr145  O304      1.17123      .   S
    Zr13   O305      1.17806      .   S
    Zr151  O305      1.17806      .   S
    Zr100  O306      0.63061      .   S
    Zr34   O306      0.63061      .   S
    Zr101  O307      0.63045      .   S
    Zr35   O307      0.63045      .   S
    Zr144  O308      0.62784      .   S
    Zr56   O308      0.62784      .   S
    Zr145  O309      0.62789      .   S
    Zr57   O309      0.62789      .   S
    Zr98   O310      0.63838      .   S
    Zr32   O310      0.63838      .   S
    Zr99   O311      0.63847      .   S
    Zr33   O311      0.63847      .   S
    Zr151  O312      0.63723      .   S
    Zr59   O312      0.63723      .   S
    Zr150  O313      0.63716      .   S
    Zr58   O313      0.63716      .   S
    Zr34   O314      0.77016      .   S
    Zr32   O314      0.77016      .   S
    Zr34   O315      0.63714      .   S
    Zr102  O315      0.63714      .   S
    Zr35   O316      0.77019      .   S
    Zr33   O316      0.77019      .   S
    Zr35   O317      0.63719      .   S
    Zr103  O317      0.63719      .   S
    Zr56   O318      0.77019      .   S
    Zr58   O318      0.77019      .   S
    Zr56   O319      0.63838      .   S
    Zr146  O319      0.63838      .   S
    Zr57   O320      0.77024      .   S
    Zr59   O320      0.77024      .   S
    Zr57   O321      0.63824      .   S
    Zr147  O321      0.63824      .   S
    Zr32   O322      0.62787      .   S
    Zr96   O322      0.62787      .   S
    Zr33   O323      0.62788      .   S
    Zr97   O323      0.62788      .   S
    Zr59   O324      0.63056      .   S
    Zr149  O324      0.63056      .   S
    Zr58   O325      0.63018      .   S
    Zr148  O325      0.63018      .   S
    Zr102  O326      1.17734      .   S
    Zr4    O326      1.17734      .   S
    Zr103  O327      1.17703      .   S
    Zr5    O327      1.17703      .   S
    Zr146  O328      1.21201      .   S
    Zr14   O328      1.21201      .   S
    Zr147  O329      1.21106      .   S
    Zr15   O329      1.21106      .   S
    Zr96   O330      1.17276      .   S
    Zr4    O330      1.17276      .   S
    Zr97   O331      1.17330      .   S
    Zr5    O331      1.17330      .   S
    Zr114  O332      0.63253      .   S
    Zr40   O332      0.63253      .   S
    Zr115  O333      0.63253      .   S
    Zr41   O333      0.63253      .   S
    Zr94   O334      1.18652      .   S
    Zr4    O334      1.18652      .   S
    Zr94   O335      0.63223  1_455   S
    Zr31   O335      0.63223      .   S
    Zr95   O336      1.18668      .   S
    Zr5    O336      1.18668      .   S
    Zr95   O337      0.63245      .   S
    Zr30   O337      0.63245      .   S
    Zr156  O338      1.17792      .   S
    Zr14   O338      1.17792      .   S
    Zr156  O339      0.63700      .   S
    Zr63   O339      0.63700      .   S
    Zr157  O340      1.17784      .   S
    Zr15   O340      1.17784      .   S
    Zr157  O341      0.63684      .   S
    Zr62   O341      0.63684  1_455   S
    Zr14   O342      1.18270      .   S
    Zr86   O342      1.18270      .   S
    Zr14   O343      1.21396      .   S
    Zr154  O343      1.21396      .   S
    Zr15   O344      1.18247      .   S
    Zr87   O344      1.18247      .   S
    Zr15   O345      1.21362      .   S
    Zr155  O345      1.21362      .   S
    Zr112  O346      0.63513      .   S
    Zr40   O346      0.63513      .   S
    Zr113  O347      0.63510      .   S
    Zr41   O347      0.63510      .   S
    Zr80   O348      0.64143      .   S
    Zr24   O348      0.64143      .   S
    Zr81   O349      0.64143      .   S
    Zr25   O349      0.64143      .   S
    Zr93   O350      0.63462      .   S
    Zr31   O350      0.63462      .   S
    Zr92   O351      0.63463      .   S
    Zr30   O351      0.63463      .   S
    Zr66   O352      1.20457      .   S
    Zr12   O352      1.20457      .   S
    Zr67   O353      1.20611      .   S
    Zr13   O353      1.20611      .   S
    Zr76   O354      1.23590      .   S
    Zr2    O354      1.23590      .   S
    Zr77   O355      1.23466      .   S
    Zr3    O355      1.23466      .   S
    Zr80   O356      1.21478      .   S
    Zr14   O356      1.21478      .   S
    Zr81   O357      1.21475      .   S
    Zr15   O357      1.21475      .   S
    Zr90   O358      1.20680      .   S
    Zr8    O358      1.20680      .   S
    Zr91   O359      1.20749      .   S
    Zr9    O359      1.20749      .   S
    Zr100  O360      1.23433      .   S
    Zr6    O360      1.23433      .   S
    Zr101  O361      1.23485      .   S
    Zr7    O361      1.23485      .   S
    Zr104  O362      1.21726      .   S
    Zr10   O362      1.21726      .   S
    Zr105  O363      1.21382      .   S
    Zr11   O363      1.21382      .   S
    Zr114  O364      1.20434      .   S
    Zr4    O364      1.20434      .   S
    Zr115  O365      1.20412      .   S
    Zr5    O365      1.20412      .   S
    Zr124  O366      1.23566      .   S
    Zr10   O366      1.23566      .   S
    Zr125  O367      1.23517      .   S
    Zr11   O367      1.23517      .   S
    Zr128  O368      1.21382      .   S
    Zr6    O368      1.21382      .   S
    Zr129  O369      1.21637      .   S
    Zr7    O369      1.21637      .   S
    Zr138  O370      1.20600      .   S
    Zr0    O370      1.20600      .   S
    Zr139  O371      1.20414      .   S
    Zr1    O371      1.20414      .   S
    Zr148  O372      1.23462      .   S
    Zr14   O372      1.23462      .   S
    Zr149  O373      1.23535      .   S
    Zr15   O373      1.23535      .   S
    Zr152  O374      1.21567      .   S
    Zr2    O374      1.21567      .   S
    Zr153  O375      1.21540      .   S
    Zr3    O375      1.21540      .   S
    N376   O377      6.32239  1_545   S
    Zr2    O377      3.28060  1_554   S
    N376   O378      2.32172      .   S
    Zr6    O378      1.77743      .   S
    N376   O379      2.82749  1_545   S
    Zr0    O379      1.62476      .   S
    N380   O381      2.32371  1_545   S
    Zr2    O381      1.77808      .   S
    N380   O382      2.82084  1_554   S
    Zr4    O382      1.62500      .   S
    N380   O383      6.32130      .   S
    Zr6    O383      3.28089      .   S
    N384   O385      6.32140      .   S
    Zr7    O385      3.28087      .   S
    N384   O386      2.82192  1_554   S
    Zr5    O386      1.62515      .   S
    N384   O387      2.32266  1_545   S
    Zr3    O387      1.77755      .   S
    N388   O389      2.32430  1_565   S
    Zr7    O389      1.77856      .   S
    N388   O390      6.31779      .   S
    Zr3    O390      3.28143  1_554   S
    N388   O391      2.82006      .   S
    Zr1    O391      1.62543      .   S
    N392   O393      2.32171      .   S
    Zr11   O393      1.77794      .   S
    N392   O394      6.32666      .   S
    Zr15   O394      3.28249  1_556   S
    N392   O395      2.82912      .   S
    Zr13   O395      1.62460      .   S
    N396   O397      6.32546      .   S
    Zr11   O397      3.28236      .   S
    N396   O398      2.32216      .   S
    Zr15   O398      1.77770      .   S
    N396   O399      2.82848  1_556   S
    Zr9    O399      1.62249      .   S
    N400   O401      6.32253      .   S
    Zr14   O401      3.28141  1_556   S
    N400   O402      2.81990      .   S
    Zr12   O402      1.62524      .   S
    N400   O403      2.32518      .   S
    Zr10   O403      1.77680      .   S
    N404   O405      2.32222      .   S
    Zr14   O405      1.77712      .   S
    N404   O406      2.82882  1_556   S
    Zr8    O406      1.62490      .   S
    N404   O407      6.32677      .   S
    Zr10   O407      3.28041      .   S
