# CIF file generated by openbabel 2.4.90, see http://openbabel.sf.net
data_I
_chemical_name_common ''
_cell_length_a 14.01
_cell_length_b 20.56
_cell_length_c 20.561
_cell_angle_alpha 89.85
_cell_angle_beta 93.673
_cell_angle_gamma 86.353
_space_group_name_H-M_alt 'P 1'
_space_group_name_Hall 'P 1'
loop_
    _symmetry_equiv_pos_as_xyz
    x,y,z
loop_
    _atom_site_label
    _atom_site_type_symbol
    _atom_site_fract_x
    _atom_site_fract_y
    _atom_site_fract_z
    _atom_site_occupancy
    Cd0     Cd   0.37501   0.28728   0.78727   1.000
    Cd1     Cd   0.37502   0.78729   0.28726   1.000
    Cd2     Cd   0.37501   0.78729   0.78720   1.000
    Cd3     Cd   0.87502   0.28728   0.28726   1.000
    Cd4     Cd   0.87501   0.28728   0.78720   1.000
    Cd5     Cd   0.87502   0.78729   0.28720   1.000
    Cd6     Cd   0.87501   0.78729   0.78727   1.000
    Cd7     Cd   0.12499   0.21273   0.21275   1.000
    Cd8     Cd   0.12499   0.21273   0.71276   1.000
    Cd9     Cd   0.12499   0.71273   0.21275   1.000
    Cd10    Cd   0.12498   0.71274   0.71276   1.000
    Cd11    Cd   0.62499   0.21272   0.21275   1.000
    Cd12    Cd   0.62498   0.21273   0.71276   1.000
    Cd13    Cd   0.62499   0.71274   0.21275   1.000
    Cd14    Cd   0.62499   0.71274   0.71276   1.000
    Cd15    Cd   0.37502   0.28728   0.28720   1.000
