# CIF file generated by openbabel 2.4.90, see http://openbabel.sf.net
data_I
_chemical_name_common ''
_cell_length_a 14.01
_cell_length_b 20.56
_cell_length_c 20.561
_cell_angle_alpha 89.85
_cell_angle_beta 93.673
_cell_angle_gamma 86.353
_space_group_name_H-M_alt 'P 1'
_space_group_name_Hall 'P 1'
loop_
    _symmetry_equiv_pos_as_xyz
    x,y,z
loop_
    _atom_site_label
    _atom_site_type_symbol
    _atom_site_fract_x
    _atom_site_fract_y
    _atom_site_fract_z
    _atom_site_occupancy
    N0      N    0.86983   0.04360   0.78224   1.000
    N1      N    0.38019   0.78221   0.54357   1.000
    N2      N    0.88020   0.28220   0.04357   1.000
    N3      N    0.88020   0.78221   0.04357   1.000
    N4      N    0.38019   0.28220   0.04357   1.000
    N5      N    0.88020   0.78221   0.54357   1.000
    N6      N    0.63018   0.45641   0.71778   1.000
    N7      N    0.38020   0.78221   0.04357   1.000
    N8      N    0.63018   0.95641   0.21778   1.000
    N9      N    0.63018   0.95641   0.71773   1.000
    N10     N    0.36982   0.04360   0.78224   1.000
    N11     N    0.86983   0.54361   0.28223   1.000
    N12     N    0.86983   0.54361   0.78224   1.000
    N13     N    0.86983   0.04360   0.28222   1.000
    N14     N    0.61981   0.21781   0.95644   1.000
    N15     N    0.61981   0.21780   0.45643   1.000
    N16     N    0.38019   0.28220   0.54358   1.000
    N17     N    0.88019   0.28220   0.54358   1.000
    N18     N    0.61982   0.71781   0.45643   1.000
    N19     N    0.61982   0.71781   0.95644   1.000
    N20     N    0.11981   0.21780   0.45643   1.000
    N21     N    0.11981   0.71781   0.95644   1.000
    N22     N    0.11981   0.71781   0.45642   1.000
    N23     N    0.36983   0.04360   0.28223   1.000
    N24     N    0.11981   0.21780   0.95643   1.000
    N25     N    0.36982   0.54361   0.28223   1.000
    N26     N    0.63018   0.45641   0.21777   1.000
    N27     N    0.13018   0.45641   0.21777   1.000
    N28     N    0.13018   0.45641   0.71779   1.000
    N29     N    0.13018   0.95641   0.21777   1.000
    N30     N    0.13018   0.95641   0.71778   1.000
    N31     N    0.36983   0.54361   0.78224   1.000
    Zr32    Zr   0.37502   0.28728   0.28720   1.000
    O33     O    0.29293   0.33221   0.26418   1.000
    O34     O    0.37479   0.28237   0.36430   1.000
    O35     O    0.36335   0.21439   0.28232   1.000
    O36     O    0.37524   0.36436   0.28232   1.000
    O37     O    0.45709   0.26424   0.33216   1.000
    O38     O    0.38668   0.28236   0.21433   1.000
    Zr39    Zr   0.87501   0.78729   0.78727   1.000
    O40     O    0.95709   0.76425   0.83221   1.000
    O41     O    0.79293   0.83222   0.76421   1.000
    O42     O    0.87479   0.78238   0.86434   1.000
    O43     O    0.88668   0.78237   0.71437   1.000
    O44     O    0.87524   0.86437   0.78238   1.000
    O45     O    0.86334   0.71440   0.78237   1.000
    Zr46    Zr   0.12499   0.21273   0.21275   1.000
    O47     O    0.12521   0.21763   0.13567   1.000
    O48     O    0.11332   0.21764   0.28563   1.000
    O49     O    0.13666   0.28561   0.21765   1.000
    O50     O    0.20707   0.16780   0.23579   1.000
    O51     O    0.12476   0.13565   0.21764   1.000
    O52     O    0.04291   0.23577   0.16780   1.000
    Zr53    Zr   0.37501   0.28728   0.78727   1.000
    O54     O    0.45709   0.26424   0.83221   1.000
    O55     O    0.37479   0.28238   0.86435   1.000
    O56     O    0.29292   0.33221   0.76423   1.000
    O57     O    0.38668   0.28237   0.71438   1.000
    O58     O    0.37523   0.36437   0.78238   1.000
    O59     O    0.36334   0.21440   0.78237   1.000
    Zr60    Zr   0.37501   0.78729   0.78720   1.000
    O61     O    0.37524   0.86437   0.78233   1.000
    O62     O    0.29293   0.83222   0.76418   1.000
    O63     O    0.45709   0.76425   0.83217   1.000
    O64     O    0.37479   0.78238   0.86430   1.000
    O65     O    0.36334   0.71440   0.78233   1.000
    O66     O    0.38668   0.78237   0.71434   1.000
    Zr67    Zr   0.87502   0.28728   0.28726   1.000
    O68     O    0.79293   0.33221   0.26422   1.000
    O69     O    0.88668   0.28237   0.21437   1.000
    O70     O    0.87524   0.36437   0.28237   1.000
    O71     O    0.86334   0.21440   0.28236   1.000
    O72     O    0.95709   0.26424   0.33220   1.000
    O73     O    0.87479   0.28237   0.36434   1.000
    Zr74    Zr   0.12499   0.21273   0.71276   1.000
    O75     O    0.11332   0.21764   0.78564   1.000
    O76     O    0.13666   0.28561   0.71766   1.000
    O77     O    0.04291   0.23577   0.66781   1.000
    O78     O    0.12521   0.21763   0.63568   1.000
    O79     O    0.12476   0.13565   0.71765   1.000
    O80     O    0.20707   0.16780   0.73580   1.000
    Zr81    Zr   0.37502   0.78729   0.28726   1.000
    O82     O    0.36335   0.71440   0.28236   1.000
    O83     O    0.29293   0.83222   0.26422   1.000
    O84     O    0.37524   0.86437   0.28237   1.000
    O85     O    0.45710   0.76425   0.33220   1.000
    O86     O    0.37480   0.78238   0.36433   1.000
    O87     O    0.38669   0.78237   0.21437   1.000
    Zr88    Zr   0.12498   0.71274   0.71276   1.000
    O89     O    0.12521   0.71764   0.63567   1.000
    O90     O    0.12476   0.63565   0.71765   1.000
    O91     O    0.13666   0.78562   0.71766   1.000
    O92     O    0.11332   0.71765   0.78564   1.000
    O93     O    0.20707   0.66781   0.73580   1.000
    O94     O    0.04291   0.73578   0.66780   1.000
    Zr95    Zr   0.87501   0.28728   0.78720   1.000
    O96     O    0.87524   0.36436   0.78233   1.000
    O97     O    0.88668   0.28236   0.71434   1.000
    O98     O    0.87479   0.28237   0.86430   1.000
    O99     O    0.95709   0.26424   0.83217   1.000
    O100    O    0.86334   0.21439   0.78233   1.000
    O101    O    0.79293   0.33221   0.76418   1.000
    Zr102   Zr   0.12499   0.71273   0.21275   1.000
    O103    O    0.13666   0.78562   0.21765   1.000
    O104    O    0.20708   0.66781   0.23579   1.000
    O105    O    0.12522   0.71764   0.13567   1.000
    O106    O    0.11333   0.71765   0.28563   1.000
    O107    O    0.12477   0.63565   0.21764   1.000
    O108    O    0.04292   0.73578   0.16780   1.000
    Zr109   Zr   0.62499   0.21272   0.21275   1.000
    O110    O    0.62477   0.13564   0.21764   1.000
    O111    O    0.62521   0.21763   0.13567   1.000
    O112    O    0.61332   0.21764   0.28563   1.000
    O113    O    0.63666   0.28561   0.21765   1.000
    O114    O    0.70708   0.16780   0.23579   1.000
    O115    O    0.54291   0.23577   0.16780   1.000
    Zr116   Zr   0.62499   0.71274   0.21275   1.000
    O117    O    0.54292   0.73578   0.16780   1.000
    O118    O    0.61333   0.71765   0.28563   1.000
    O119    O    0.62522   0.71764   0.13567   1.000
    O120    O    0.62477   0.63565   0.21764   1.000
    O121    O    0.63667   0.78562   0.21765   1.000
    O122    O    0.70708   0.66781   0.23579   1.000
    Zr123   Zr   0.62499   0.71274   0.71276   1.000
    O124    O    0.63666   0.78562   0.71765   1.000
    O125    O    0.62521   0.71764   0.63568   1.000
    O126    O    0.61332   0.71765   0.78564   1.000
    O127    O    0.54291   0.73578   0.66781   1.000
    O128    O    0.62476   0.63565   0.71765   1.000
    O129    O    0.70707   0.66781   0.73580   1.000
    Zr130   Zr   0.62498   0.21273   0.71276   1.000
    O131    O    0.62521   0.21763   0.63568   1.000
    O132    O    0.61332   0.21764   0.78564   1.000
    O133    O    0.63665   0.28561   0.71766   1.000
    O134    O    0.54291   0.23577   0.66782   1.000
    O135    O    0.70707   0.16780   0.73580   1.000
    O136    O    0.62476   0.13565   0.71764   1.000
    Zr137   Zr   0.87502   0.78729   0.28720   1.000
    O138    O    0.95709   0.76425   0.33216   1.000
    O139    O    0.79293   0.83222   0.26418   1.000
    O140    O    0.88669   0.78237   0.21434   1.000
    O141    O    0.87479   0.78238   0.36430   1.000
    O142    O    0.86335   0.71440   0.28232   1.000
    O143    O    0.87524   0.86437   0.28233   1.000
loop_
    _geom_bond_atom_site_label_1
    _geom_bond_atom_site_label_2
    _geom_bond_distance
    _geom_bond_site_symmetry_2
    _ccdc_geom_bond_type
    Zr32   O33       1.48081      .   S
    N27    O33       3.40559      .   S
    Zr32   O34       1.58846      .   S
    N16    O34       3.68203      .   S
    Zr32   O35       1.52058      .   S
    N23    O35       3.50688      .   S
    Zr32   O36       1.58797      .   S
    N25    O36       3.68120      .   S
    Zr32   O37       1.48103      .   S
    N15    O37       3.40595      .   S
    Zr32   O38       1.52044      .   S
    N4     O38       3.50629      .   S
    Zr39   O40       1.48080      .   S
    N21    O40       3.40548  1_455   S
    Zr39   O41       1.48094      .   S
    N9     O41       3.40582      .   S
    Zr39   O42       1.58771      .   S
    N3     O42       3.68111  1_554   S
    Zr39   O43       1.52103      .   S
    N5     O43       3.50731      .   S
    Zr39   O44       1.58790      .   S
    N0     O44       3.68096  1_545   S
    Zr39   O45       1.52067      .   S
    N12    O45       3.50701      .   S
    Zr46   O47       1.58801      .   S
    N24    O47       3.68119  1_556   S
    Zr46   O48       1.52075      .   S
    N20    O48       3.50720      .   S
    Zr46   O49       1.52064      .   S
    N27    O49       3.50698      .   S
    Zr46   O50       1.48089      .   S
    N23    O50       3.40567      .   S
    Zr46   O51       1.58790      .   S
    N29    O51       3.68098  1_565   S
    Zr46   O52       1.48090      .   S
    N2     O52       3.40546  1_655   S
    Zr53   O54       1.48080      .   S
    N14    O54       3.40549      .   S
    Zr53   O55       1.58795      .   S
    N4     O55       3.68100  1_554   S
    Zr53   O56       1.48089      .   S
    N28    O56       3.40569      .   S
    Zr53   O57       1.52078      .   S
    N16    O57       3.50730      .   S
    Zr53   O58       1.58796      .   S
    N31    O58       3.68115      .   S
    Zr53   O59       1.52065      .   S
    N10    O59       3.50694      .   S
    Zr60   O61       1.58788      .   S
    N10    O61       3.68099  1_545   S
    Zr60   O62       1.48075      .   S
    N30    O62       3.40547      .   S
    Zr60   O63       1.48110      .   S
    N19    O63       3.40610      .   S
    Zr60   O64       1.58843      .   S
    N7     O64       3.68182  1_554   S
    Zr60   O65       1.52060      .   S
    N31    O65       3.50695      .   S
    Zr60   O66       1.52029      .   S
    N1     O66       3.50652      .   S
    Zr67   O68       1.48089      .   S
    N26    O68       3.40571      .   S
    Zr67   O69       1.52096      .   S
    N2     O69       3.50721      .   S
    Zr67   O70       1.58797      .   S
    N11    O70       3.68116      .   S
    Zr67   O71       1.52063      .   S
    N13    O71       3.50692      .   S
    Zr67   O72       1.48080      .   S
    N20    O72       3.40551  1_455   S
    Zr67   O73       1.58800      .   S
    N17    O73       3.68117      .   S
    Zr74   O75       1.52069      .   S
    N24    O75       3.50703      .   S
    Zr74   O76       1.52065      .   S
    N28    O76       3.50698      .   S
    Zr74   O77       1.48084      .   S
    N17    O77       3.40560  1_655   S
    Zr74   O78       1.58806      .   S
    N20    O78       3.68133      .   S
    Zr74   O79       1.58791      .   S
    N30    O79       3.68099  1_565   S
    Zr74   O80       1.48087      .   S
    N10    O80       3.40564      .   S
    Zr81   O82       1.52066      .   S
    N25    O82       3.50700      .   S
    Zr81   O83       1.48091      .   S
    N29    O83       3.40570      .   S
    Zr81   O84       1.58791      .   S
    N23    O84       3.68098  1_545   S
    Zr81   O85       1.48079      .   S
    N18    O85       3.40548      .   S
    Zr81   O86       1.58781      .   S
    N1     O86       3.68129      .   S
    Zr81   O87       1.52094      .   S
    N7     O87       3.50717      .   S
    Zr88   O89       1.58816      .   S
    N22    O89       3.68163      .   S
    Zr88   O90       1.58797      .   S
    N28    O90       3.68118      .   S
    Zr88   O91       1.52063      .   S
    N30    O91       3.50690      .   S
    Zr88   O92       1.52070      .   S
    N21    O92       3.50709      .   S
    Zr88   O93       1.48093      .   S
    N31    O93       3.40577      .   S
    Zr88   O94       1.48092      .   S
    N5     O94       3.40550  1_655   S
    Zr95   O96       1.58796      .   S
    N12    O96       3.68120      .   S
    Zr95   O97       1.52027      .   S
    N17    O97       3.50647      .   S
    Zr95   O98       1.58841      .   S
    N2     O98       3.68178  1_554   S
    Zr95   O99       1.48108      .   S
    N24    O99       3.40602  1_455   S
    Zr95   O100      1.52058      .   S
    N0     O100      3.50685      .   S
    Zr95   O101      1.48077      .   S
    N6     O101      3.40552      .   S
    Zr102  O103      1.52062      .   S
    N29    O103      3.50691      .   S
    Zr102  O104      1.48088      .   S
    N25    O104      3.40568      .   S
    Zr102  O105      1.58799      .   S
    N21    O105      3.68113  1_556   S
    Zr102  O106      1.52065      .   S
    N22    O106      3.50690      .   S
    Zr102  O107      1.58797      .   S
    N27    O107      3.68117      .   S
    Zr102  O108      1.48082      .   S
    N3     O108      3.40555  1_655   S
    Zr109  O110      1.58789      .   S
    N8     O110      3.68096  1_565   S
    Zr109  O111      1.58799      .   S
    N14    O111      3.68111  1_556   S
    Zr109  O112      1.52072      .   S
    N15    O112      3.50712      .   S
    Zr109  O113      1.52067      .   S
    N26    O113      3.50701      .   S
    Zr109  O114      1.48087      .   S
    N13    O114      3.40565      .   S
    Zr109  O115      1.48090      .   S
    N4     O115      3.40542      .   S
    Zr116  O117      1.48090      .   S
    N7     O117      3.40545      .   S
    Zr116  O118      1.52074      .   S
    N18    O118      3.50718      .   S
    Zr116  O119      1.58799      .   S
    N19    O119      3.68113  1_556   S
    Zr116  O120      1.58797      .   S
    N26    O120      3.68118      .   S
    Zr116  O121      1.52063      .   S
    N8     O121      3.50689      .   S
    Zr116  O122      1.48090      .   S
    N11    O122      3.40574      .   S
    Zr123  O124      1.52060      .   S
    N9     O124      3.50689      .   S
    Zr123  O125      1.58807      .   S
    N18    O125      3.68136      .   S
    Zr123  O126      1.52071      .   S
    N19    O126      3.50709      .   S
    Zr123  O127      1.48084      .   S
    N1     O127      3.40562      .   S
    Zr123  O128      1.58797      .   S
    N6     O128      3.68119      .   S
    Zr123  O129      1.48091      .   S
    N12    O129      3.40574      .   S
    Zr130  O131      1.58809      .   S
    N15    O131      3.68141      .   S
    Zr130  O132      1.52071      .   S
    N14    O132      3.50711      .   S
    Zr130  O133      1.52065      .   S
    N6     O133      3.50699      .   S
    Zr130  O134      1.48079      .   S
    N16    O134      3.40550      .   S
    Zr130  O135      1.48092      .   S
    N0     O135      3.40572      .   S
    Zr130  O136      1.58788      .   S
    N9     O136      3.68098  1_565   S
    Zr137  O138      1.48101      .   S
    N22    O138      3.40582  1_455   S
    Zr137  O139      1.48075      .   S
    N8     O139      3.40548      .   S
    Zr137  O140      1.52035      .   S
    N3     O140      3.50651      .   S
    Zr137  O141      1.58840      .   S
    N5     O141      3.68184      .   S
    Zr137  O142      1.52062      .   S
    N11    O142      3.50696      .   S
    Zr137  O143      1.58789      .   S
    N13    O143      3.68099  1_545   S
