# CIF file generated by openbabel 2.4.90, see http://openbabel.sf.net
data_I
_chemical_name_common ''
_cell_length_a 15.23
_cell_length_b 17.848
_cell_length_c 17.848
_cell_angle_alpha 90
_cell_angle_beta 90
_cell_angle_gamma 89.999
_space_group_name_H-M_alt 'P 1'
_space_group_name_Hall 'P 1'
loop_
    _symmetry_equiv_pos_as_xyz
    x,y,z
loop_
    _atom_site_label
    _atom_site_type_symbol
    _atom_site_fract_x
    _atom_site_fract_y
    _atom_site_fract_z
    _atom_site_occupancy
    C0      C    0.87161   0.75000   0.75000   1.000
    C1      C    0.37160   0.75001   0.75000   1.000
    C2      C    0.62841   0.25000   0.25000   1.000
    C3      C    0.12840   0.25000   0.25000   1.000
    C4      C    0.62215   0.75000   0.75000   1.000
    C5      C    0.12214   0.75000   0.75000   1.000
    C6      C    0.87787   0.25000   0.25000   1.000
    C7      C    0.37786   0.25000   0.25000   1.000
    C8      C    0.75572   0.81826   0.87222   1.000
    C9      C    0.75568   0.83422   0.01161   1.000
    C10     C    0.99303   0.70227   0.01881   1.000
    C11     C    0.98906   0.69800   0.87853   1.000
    C12     C    0.87955   0.65515   0.12610   1.000
    C13     C    0.87307   0.90601   0.24931   1.000
    C14     C    0.86953   0.89585   0.11067   1.000
    C15     C    0.75572   0.68175   0.62778   1.000
    C16     C    0.75568   0.66579   0.48838   1.000
    C17     C    0.99303   0.79773   0.48118   1.000
    C18     C    0.98905   0.80201   0.62147   1.000
    C19     C    0.87953   0.84486   0.37383   1.000
    C20     C    0.87309   0.59400   0.25068   1.000
    C21     C    0.86954   0.60416   0.38932   1.000
    C22     C    0.75572   0.62778   0.81825   1.000
    C23     C    0.75568   0.48838   0.83422   1.000
    C24     C    0.99304   0.48118   0.70227   1.000
    C25     C    0.98906   0.62147   0.69799   1.000
    C26     C    0.87954   0.37383   0.65514   1.000
    C27     C    0.87309   0.25069   0.90601   1.000
    C28     C    0.86954   0.38933   0.89584   1.000
    C29     C    0.75572   0.87223   0.68175   1.000
    C30     C    0.75569   0.01162   0.66578   1.000
    C31     C    0.99304   0.01882   0.79773   1.000
    C32     C    0.98905   0.87853   0.80201   1.000
    C33     C    0.87955   0.12617   0.84486   1.000
    C34     C    0.87308   0.24932   0.59399   1.000
    C35     C    0.86954   0.11067   0.60416   1.000
    C36     C    0.25571   0.81826   0.62778   1.000
    C37     C    0.25567   0.83422   0.48838   1.000
    C38     C    0.49303   0.70227   0.48118   1.000
    C39     C    0.48905   0.69800   0.62147   1.000
    C40     C    0.37953   0.65515   0.37383   1.000
    C41     C    0.37307   0.90601   0.25068   1.000
    C42     C    0.36953   0.89585   0.38933   1.000
    C43     C    0.25571   0.68175   0.87222   1.000
    C44     C    0.25567   0.66579   0.01160   1.000
    C45     C    0.49303   0.79773   0.01881   1.000
    C46     C    0.48905   0.80201   0.87853   1.000
    C47     C    0.37953   0.84486   0.12617   1.000
    C48     C    0.37307   0.59400   0.24931   1.000
    C49     C    0.36953   0.60416   0.11067   1.000
    C50     C    0.25571   0.62778   0.68175   1.000
    C51     C    0.25567   0.48838   0.66578   1.000
    C52     C    0.49303   0.48118   0.79773   1.000
    C53     C    0.48905   0.62147   0.80201   1.000
    C54     C    0.37953   0.37383   0.84486   1.000
    C55     C    0.37308   0.25069   0.59399   1.000
    C56     C    0.36953   0.38933   0.60416   1.000
    C57     C    0.25571   0.87223   0.81820   1.000
    C58     C    0.25568   0.01162   0.83422   1.000
    C59     C    0.49303   0.01882   0.70227   1.000
    C60     C    0.48905   0.87854   0.69000   1.000
    C61     C    0.37954   0.12617   0.65514   1.000
    C62     C    0.37307   0.24932   0.90601   1.000
    C63     C    0.36954   0.11067   0.89580   1.000
    C64     C    0.74430   0.18175   0.37222   1.000
    C65     C    0.74434   0.16578   0.51162   1.000
    C66     C    0.50698   0.29773   0.51882   1.000
    C67     C    0.51096   0.30201   0.37853   1.000
    C68     C    0.62048   0.34486   0.62617   1.000
    C69     C    0.62694   0.09399   0.74931   1.000
    C70     C    0.63048   0.10416   0.61067   1.000
    C71     C    0.74430   0.31825   0.12777   1.000
    C72     C    0.74433   0.33422   0.98838   1.000
    C73     C    0.50698   0.20227   0.98118   1.000
    C74     C    0.51096   0.19799   0.12140   1.000
    C75     C    0.62048   0.15514   0.87383   1.000
    C76     C    0.62694   0.40601   0.75060   1.000
    C77     C    0.63048   0.39585   0.88933   1.000
    C78     C    0.74430   0.37222   0.31825   1.000
    C79     C    0.74433   0.51162   0.33421   1.000
    C80     C    0.50698   0.51882   0.20227   1.000
    C81     C    0.51096   0.37853   0.19799   1.000
    C82     C    0.62047   0.62617   0.15514   1.000
    C83     C    0.62694   0.74932   0.40600   1.000
    C84     C    0.63048   0.61067   0.39584   1.000
    C85     C    0.74430   0.12778   0.18174   1.000
    C86     C    0.74433   0.98838   0.16578   1.000
    C87     C    0.50698   0.98119   0.29773   1.000
    C88     C    0.51096   0.12147   0.30200   1.000
    C89     C    0.62048   0.87384   0.34480   1.000
    C90     C    0.62693   0.75069   0.09399   1.000
    C91     C    0.63047   0.88933   0.10415   1.000
    C92     C    0.24429   0.18175   0.12777   1.000
    C93     C    0.24433   0.16578   0.98838   1.000
    C94     C    0.00697   0.29773   0.98118   1.000
    C95     C    0.01095   0.30201   0.12140   1.000
    C96     C    0.12047   0.34486   0.87383   1.000
    C97     C    0.12693   0.09399   0.75060   1.000
    C98     C    0.13048   0.10416   0.88933   1.000
    C99     C    0.24429   0.31825   0.37222   1.000
    C100    C    0.24433   0.33422   0.51162   1.000
    C101    C    0.00698   0.20227   0.51882   1.000
    C102    C    0.01096   0.19799   0.37853   1.000
    C103    C    0.12047   0.15514   0.62617   1.000
    C104    C    0.12693   0.40601   0.74931   1.000
    C105    C    0.13047   0.39584   0.61067   1.000
    C106    C    0.24429   0.37222   0.18174   1.000
    C107    C    0.24432   0.51162   0.16578   1.000
    C108    C    0.00697   0.51882   0.29773   1.000
    C109    C    0.01095   0.37853   0.30200   1.000
    C110    C    0.12046   0.62617   0.34480   1.000
    C111    C    0.12693   0.74932   0.09399   1.000
    C112    C    0.13047   0.61067   0.10415   1.000
    C113    C    0.24429   0.12778   0.31825   1.000
    C114    C    0.24432   0.98838   0.33421   1.000
    C115    C    0.00697   0.98119   0.20227   1.000
    C116    C    0.01096   0.12147   0.19799   1.000
    C117    C    0.12047   0.87383   0.15514   1.000
    C118    C    0.12693   0.75069   0.40600   1.000
    C119    C    0.13047   0.88933   0.39584   1.000
    C120    C    0.80848   0.79541   0.90680   1.000
    C121    C    0.80844   0.80334   0.98429   1.000
    C122    C    0.87456   0.76904   0.02695   1.000
    C123    C    0.93962   0.72904   0.98829   1.000
    C124    C    0.93734   0.72575   0.91051   1.000
    C125    C    0.87542   0.77434   0.10961   1.000
    C126    C    0.87848   0.71007   0.15305   1.000
    C127    C    0.87716   0.71396   0.23220   1.000
    C128    C    0.87423   0.85120   0.22221   1.000
    C129    C    0.87201   0.84554   0.14534   1.000
    C130    C    0.80847   0.70461   0.59319   1.000
    C131    C    0.80845   0.69666   0.51571   1.000
    C132    C    0.87456   0.73097   0.47304   1.000
    C133    C    0.93962   0.77096   0.51170   1.000
    C134    C    0.93734   0.77427   0.58949   1.000
    C135    C    0.87539   0.72567   0.39038   1.000
    C136    C    0.87850   0.78994   0.34694   1.000
    C137    C    0.87710   0.78605   0.26778   1.000
    C138    C    0.87422   0.64881   0.27778   1.000
    C139    C    0.87203   0.65447   0.35465   1.000
    C140    C    0.80847   0.59320   0.79540   1.000
    C141    C    0.80845   0.51572   0.80334   1.000
    C142    C    0.87456   0.47305   0.76903   1.000
    C143    C    0.93963   0.51171   0.72905   1.000
    C144    C    0.93734   0.58949   0.72573   1.000
    C145    C    0.87540   0.39038   0.77433   1.000
    C146    C    0.87850   0.34695   0.71006   1.000
    C147    C    0.87711   0.26778   0.71390   1.000
    C148    C    0.87422   0.27778   0.85100   1.000
    C149    C    0.87203   0.35466   0.84553   1.000
    C150    C    0.80847   0.90681   0.70459   1.000
    C151    C    0.80844   0.98429   0.69666   1.000
    C152    C    0.87457   0.02695   0.73097   1.000
    C153    C    0.93962   0.98830   0.77096   1.000
    C154    C    0.93734   0.91051   0.77426   1.000
    C155    C    0.87542   0.10962   0.72567   1.000
    C156    C    0.87848   0.15305   0.78994   1.000
    C157    C    0.87716   0.23222   0.78605   1.000
    C158    C    0.87424   0.22222   0.64880   1.000
    C159    C    0.87202   0.14534   0.65447   1.000
    C160    C    0.30847   0.79541   0.59320   1.000
    C161    C    0.30843   0.80334   0.51571   1.000
    C162    C    0.37455   0.76904   0.47304   1.000
    C163    C    0.43961   0.72905   0.51171   1.000
    C164    C    0.43733   0.72575   0.58949   1.000
    C165    C    0.37540   0.77434   0.39038   1.000
    C166    C    0.37848   0.71007   0.34695   1.000
    C167    C    0.37712   0.71396   0.26778   1.000
    C168    C    0.37422   0.85120   0.27778   1.000
    C169    C    0.37201   0.84554   0.35465   1.000
    C170    C    0.30846   0.70461   0.90680   1.000
    C171    C    0.30844   0.69666   0.98429   1.000
    C172    C    0.37455   0.73097   0.02695   1.000
    C173    C    0.43962   0.77096   0.98829   1.000
    C174    C    0.43733   0.77427   0.91051   1.000
    C175    C    0.37540   0.72567   0.10962   1.000
    C176    C    0.37848   0.78994   0.15305   1.000
    C177    C    0.37712   0.78605   0.23222   1.000
    C178    C    0.37422   0.64881   0.22221   1.000
    C179    C    0.37201   0.65447   0.14534   1.000
    C180    C    0.30847   0.59320   0.70459   1.000
    C181    C    0.30843   0.51572   0.69667   1.000
    C182    C    0.37456   0.47305   0.73097   1.000
    C183    C    0.43961   0.51171   0.77097   1.000
    C184    C    0.43734   0.58950   0.77425   1.000
    C185    C    0.37540   0.39038   0.72567   1.000
    C186    C    0.37849   0.34695   0.78994   1.000
    C187    C    0.37712   0.26778   0.78605   1.000
    C188    C    0.37422   0.27778   0.64881   1.000
    C189    C    0.37202   0.35466   0.65447   1.000
    C190    C    0.30846   0.90681   0.79500   1.000
    C191    C    0.30844   0.98429   0.80335   1.000
    C192    C    0.37456   0.02696   0.76903   1.000
    C193    C    0.43962   0.98830   0.72905   1.000
    C194    C    0.43733   0.91052   0.72573   1.000
    C195    C    0.37541   0.10962   0.77433   1.000
    C196    C    0.37848   0.15306   0.71006   1.000
    C197    C    0.37713   0.23222   0.71396   1.000
    C198    C    0.37422   0.22222   0.85120   1.000
    C199    C    0.37201   0.14534   0.84553   1.000
    C200    C    0.69154   0.20460   0.40680   1.000
    C201    C    0.69158   0.19667   0.48428   1.000
    C202    C    0.62545   0.23097   0.52695   1.000
    C203    C    0.56040   0.27096   0.48829   1.000
    C204    C    0.56268   0.27426   0.41050   1.000
    C205    C    0.62461   0.22567   0.60962   1.000
    C206    C    0.62153   0.28994   0.65305   1.000
    C207    C    0.62289   0.28605   0.73222   1.000
    C208    C    0.62579   0.14881   0.72222   1.000
    C209    C    0.62800   0.15447   0.64534   1.000
    C210    C    0.69155   0.29540   0.09319   1.000
    C211    C    0.69157   0.30334   0.01571   1.000
    C212    C    0.62546   0.26903   0.97300   1.000
    C213    C    0.56039   0.22905   0.01170   1.000
    C214    C    0.56268   0.22574   0.08949   1.000
    C215    C    0.62461   0.27433   0.89038   1.000
    C216    C    0.62153   0.21006   0.84695   1.000
    C217    C    0.62289   0.21396   0.76778   1.000
    C218    C    0.62579   0.35120   0.77778   1.000
    C219    C    0.62800   0.34553   0.85466   1.000
    C220    C    0.69154   0.40680   0.29540   1.000
    C221    C    0.69157   0.48429   0.30330   1.000
    C222    C    0.62545   0.52696   0.26903   1.000
    C223    C    0.56039   0.48829   0.22904   1.000
    C224    C    0.56267   0.41051   0.22570   1.000
    C225    C    0.62460   0.60962   0.27433   1.000
    C226    C    0.62153   0.65306   0.21006   1.000
    C227    C    0.62287   0.73222   0.21395   1.000
    C228    C    0.62578   0.72222   0.35119   1.000
    C229    C    0.62800   0.64535   0.34553   1.000
    C230    C    0.69155   0.09320   0.20459   1.000
    C231    C    0.69157   0.01571   0.19666   1.000
    C232    C    0.62545   0.97305   0.23096   1.000
    C233    C    0.56040   0.01171   0.27095   1.000
    C234    C    0.56268   0.08949   0.27426   1.000
    C235    C    0.62461   0.89038   0.22566   1.000
    C236    C    0.62152   0.84695   0.28993   1.000
    C237    C    0.62290   0.76778   0.28604   1.000
    C238    C    0.62579   0.77779   0.14880   1.000
    C239    C    0.62799   0.85466   0.15446   1.000
    C240    C    0.19154   0.20460   0.09319   1.000
    C241    C    0.19156   0.19666   0.01571   1.000
    C242    C    0.12545   0.23097   0.97300   1.000
    C243    C    0.06038   0.27096   0.01170   1.000
    C244    C    0.06267   0.27426   0.08949   1.000
    C245    C    0.12460   0.22567   0.89038   1.000
    C246    C    0.12152   0.28994   0.84695   1.000
    C247    C    0.12288   0.28605   0.76778   1.000
    C248    C    0.12579   0.14881   0.77778   1.000
    C249    C    0.12799   0.15447   0.85466   1.000
    C250    C    0.19154   0.29541   0.40680   1.000
    C251    C    0.19157   0.30334   0.48428   1.000
    C252    C    0.12545   0.26903   0.52695   1.000
    C253    C    0.06039   0.22904   0.48829   1.000
    C254    C    0.06267   0.22574   0.41051   1.000
    C255    C    0.12461   0.27433   0.60962   1.000
    C256    C    0.12152   0.21006   0.65305   1.000
    C257    C    0.12289   0.21395   0.73222   1.000
    C258    C    0.12579   0.35120   0.72222   1.000
    C259    C    0.12799   0.34553   0.64534   1.000
    C260    C    0.19154   0.40680   0.20460   1.000
    C261    C    0.19156   0.48429   0.19665   1.000
    C262    C    0.12545   0.52696   0.23090   1.000
    C263    C    0.06038   0.48829   0.27095   1.000
    C264    C    0.06267   0.41051   0.27426   1.000
    C265    C    0.12460   0.60962   0.22566   1.000
    C266    C    0.12152   0.65306   0.28990   1.000
    C267    C    0.12287   0.73222   0.28604   1.000
    C268    C    0.12578   0.72222   0.14880   1.000
    C269    C    0.12799   0.64535   0.15440   1.000
    C270    C    0.19154   0.09320   0.29540   1.000
    C271    C    0.19157   0.01571   0.30333   1.000
    C272    C    0.12544   0.97305   0.26903   1.000
    C273    C    0.06039   0.01171   0.22904   1.000
    C274    C    0.06267   0.08949   0.22574   1.000
    C275    C    0.12460   0.89038   0.27433   1.000
    C276    C    0.12151   0.84695   0.21006   1.000
    C277    C    0.12288   0.76779   0.21395   1.000
    C278    C    0.12578   0.77779   0.35119   1.000
    C279    C    0.12798   0.85466   0.34553   1.000
    C280    C    0.87239   0.75781   0.87035   1.000
    C281    C    0.87240   0.74219   0.62965   1.000
    C282    C    0.87240   0.62966   0.75781   1.000
    C283    C    0.87239   0.87035   0.74220   1.000
    C284    C    0.37238   0.75781   0.62965   1.000
    C285    C    0.37239   0.74220   0.87035   1.000
    C286    C    0.37238   0.62966   0.74220   1.000
    C287    C    0.37239   0.87035   0.75781   1.000
    C288    C    0.62763   0.24220   0.37034   1.000
    C289    C    0.62762   0.25781   0.12965   1.000
    C290    C    0.62762   0.37035   0.25780   1.000
    C291    C    0.62762   0.12965   0.24219   1.000
    C292    C    0.12762   0.24219   0.12965   1.000
    C293    C    0.12762   0.25781   0.37034   1.000
    C294    C    0.12761   0.37035   0.24219   1.000
    C295    C    0.12762   0.12965   0.25780   1.000
    C296    C    0.62223   0.69980   0.83116   1.000
    C297    C    0.62223   0.80021   0.66884   1.000
    C298    C    0.62223   0.66884   0.69980   1.000
    C299    C    0.62223   0.83117   0.80020   1.000
    C300    C    0.12222   0.69980   0.66884   1.000
    C301    C    0.12222   0.80021   0.83116   1.000
    C302    C    0.12222   0.66884   0.80020   1.000
    C303    C    0.12222   0.83117   0.69980   1.000
    C304    C    0.73682   0.75001   0.75000   1.000
    C305    C    0.50749   0.75000   0.75000   1.000
    C306    C    0.23681   0.75000   0.75000   1.000
    C307    C    0.00748   0.75001   0.75000   1.000
    C308    C    0.87778   0.30020   0.33116   1.000
    C309    C    0.87780   0.19980   0.16880   1.000
    C310    C    0.87779   0.33116   0.19979   1.000
    C311    C    0.87779   0.16884   0.30020   1.000
    C312    C    0.37777   0.30021   0.16884   1.000
    C313    C    0.37779   0.19980   0.33116   1.000
    C314    C    0.37777   0.33116   0.30020   1.000
    C315    C    0.37780   0.16884   0.19979   1.000
    C316    C    0.76320   0.25001   0.25000   1.000
    C317    C    0.99253   0.24999   0.24999   1.000
    C318    C    0.26319   0.25002   0.25000   1.000
    C319    C    0.49252   0.24998   0.25000   1.000
    O320    O    0.28206   0.68122   0.99794   1.000
    O321    O    0.78206   0.81878   0.99795   1.000
    O322    O    0.06153   0.27261   0.05059   1.000
    O323    O    0.09292   0.25096   0.99235   1.000
    O324    O    0.03368   0.28434   0.99644   1.000
    O325    O    0.56154   0.22739   0.05059   1.000
    O326    O    0.59293   0.24904   0.99235   1.000
    O327    O    0.53369   0.21566   0.99644   1.000
    O328    O    0.69156   0.29937   0.05445   1.000
    O329    O    0.65851   0.28619   0.99435   1.000
    O330    O    0.71795   0.31878   0.00205   1.000
    O331    O    0.19155   0.20063   0.05445   1.000
    O332    O    0.15851   0.21382   0.99435   1.000
    O333    O    0.21795   0.18122   0.00205   1.000
    O334    O    0.96633   0.71566   0.00355   1.000
    O335    O    0.46632   0.78434   0.00355   1.000
    O336    O    0.37498   0.72832   0.06828   1.000
    O337    O    0.34150   0.71382   0.00562   1.000
    O338    O    0.40709   0.75097   0.00762   1.000
    O339    O    0.87499   0.77169   0.06828   1.000
    O340    O    0.84150   0.78619   0.00562   1.000
    O341    O    0.90709   0.74904   0.00762   1.000
    O342    O    0.03681   0.28814   0.10544   1.000
    O343    O    0.09514   0.25823   0.10957   1.000
    O344    O    0.53682   0.21187   0.10544   1.000
    O345    O    0.59515   0.24177   0.10957   1.000
    O346    O    0.71792   0.30683   0.11048   1.000
    O347    O    0.65958   0.27660   0.11142   1.000
    O348    O    0.21792   0.19317   0.11048   1.000
    O349    O    0.15958   0.22340   0.11142   1.000
    O350    O    0.12635   0.73577   0.12139   1.000
    O351    O    0.62636   0.76424   0.12139   1.000
    O352    O    0.62923   0.87200   0.12930   1.000
    O353    O    0.12923   0.62801   0.12927   1.000
    O354    O    0.87371   0.80994   0.12747   1.000
    O355    O    0.87695   0.74220   0.13133   1.000
    O356    O    0.37371   0.69007   0.12748   1.000
    O357    O    0.37694   0.75781   0.13133   1.000
    O358    O    0.87077   0.87069   0.12800   1.000
    O359    O    0.37077   0.62932   0.12800   1.000
    O360    O    0.87901   0.68261   0.13957   1.000
    O361    O    0.37901   0.81740   0.13961   1.000
    O362    O    0.12801   0.24610   0.18982   1.000
    O363    O    0.62802   0.25391   0.18982   1.000
    O364    O    0.37311   0.65164   0.18377   1.000
    O365    O    0.87312   0.84837   0.18377   1.000
    O366    O    0.12688   0.68378   0.15160   1.000
    O367    O    0.12433   0.74500   0.18137   1.000
    O368    O    0.62689   0.81622   0.15163   1.000
    O369    O    0.62433   0.75501   0.18137   1.000
    O370    O    0.37780   0.78800   0.19263   1.000
    O371    O    0.87782   0.71201   0.19262   1.000
    O372    O    0.12629   0.62749   0.19003   1.000
    O373    O    0.62630   0.87252   0.19006   1.000
    O374    O    0.12099   0.86039   0.18260   1.000
    O375    O    0.62100   0.63961   0.18260   1.000
    O376    O    0.21794   0.49795   0.18121   1.000
    O377    O    0.71795   0.00205   0.18122   1.000
    O378    O    0.87783   0.22490   0.20940   1.000
    O379    O    0.37782   0.27510   0.20942   1.000
    O380    O    0.71792   0.11049   0.19316   1.000
    O381    O    0.21791   0.38951   0.19317   1.000
    O382    O    0.19155   0.44555   0.20062   1.000
    O383    O    0.15850   0.50562   0.21377   1.000
    O384    O    0.69156   0.05445   0.20062   1.000
    O385    O    0.65851   0.99438   0.21381   1.000
    O386    O    0.03681   0.10548   0.21186   1.000
    O387    O    0.53682   0.39452   0.21184   1.000
    O388    O    0.37783   0.20942   0.22489   1.000
    O389    O    0.87783   0.29058   0.22489   1.000
    O390    O    0.03368   0.99645   0.21565   1.000
    O391    O    0.53369   0.50356   0.21565   1.000
    O392    O    0.65959   0.11142   0.22339   1.000
    O393    O    0.15958   0.38858   0.22339   1.000
    O394    O    0.62220   0.69264   0.21200   1.000
    O395    O    0.62306   0.63134   0.24219   1.000
    O396    O    0.12220   0.80737   0.21200   1.000
    O397    O    0.12306   0.86867   0.24219   1.000
    O398    O    0.62288   0.75000   0.24999   1.000
    O399    O    0.12288   0.75000   0.24999   1.000
    O400    O    0.37364   0.62140   0.23576   1.000
    O401    O    0.37567   0.68138   0.24499   1.000
    O402    O    0.87365   0.87861   0.23576   1.000
    O403    O    0.87567   0.81862   0.24499   1.000
    O404    O    0.62503   0.93172   0.22831   1.000
    O405    O    0.62307   0.86867   0.25779   1.000
    O406    O    0.12502   0.56829   0.22828   1.000
    O407    O    0.12306   0.63134   0.25778   1.000
    O408    O    0.56153   0.44940   0.22737   1.000
    O409    O    0.59515   0.39043   0.24175   1.000
    O410    O    0.06153   0.05060   0.22739   1.000
    O411    O    0.09514   0.10957   0.24177   1.000
    O412    O    0.09292   0.99238   0.24903   1.000
    O413    O    0.59292   0.50763   0.24903   1.000
    O414    O    0.09292   0.50763   0.25093   1.000
    O415    O    0.59292   0.99238   0.25095   1.000
    O416    O    0.87713   0.75000   0.24999   1.000
    O417    O    0.87569   0.68138   0.25499   1.000
    O418    O    0.37712   0.75000   0.25000   1.000
    O419    O    0.37567   0.81862   0.25500   1.000
    O420    O    0.62802   0.18983   0.24610   1.000
    O421    O    0.59515   0.10957   0.25822   1.000
    O422    O    0.12801   0.31018   0.24610   1.000
    O423    O    0.09514   0.39043   0.25822   1.000
    O424    O    0.93520   0.25000   0.24999   1.000
    O425    O    0.43519   0.24999   0.25000   1.000
    O426    O    0.62802   0.31017   0.25390   1.000
    O427    O    0.62802   0.24610   0.31017   1.000
    O428    O    0.12801   0.18983   0.25390   1.000
    O429    O    0.12801   0.25390   0.31017   1.000
    O430    O    0.32053   0.25001   0.25000   1.000
    O431    O    0.82053   0.25001   0.25000   1.000
    O432    O    0.87783   0.20942   0.27510   1.000
    O433    O    0.87782   0.27510   0.29058   1.000
    O434    O    0.37781   0.29058   0.27510   1.000
    O435    O    0.37783   0.22490   0.29058   1.000
    O436    O    0.87365   0.62140   0.26423   1.000
    O437    O    0.37364   0.87861   0.26423   1.000
    O438    O    0.65958   0.38858   0.27660   1.000
    O439    O    0.15958   0.11143   0.27660   1.000
    O440    O    0.37780   0.71201   0.30736   1.000
    O441    O    0.87780   0.78800   0.30736   1.000
    O442    O    0.62503   0.56829   0.27168   1.000
    O443    O    0.65851   0.50562   0.28616   1.000
    O444    O    0.12502   0.93172   0.27168   1.000
    O445    O    0.15851   0.99438   0.28618   1.000
    O446    O    0.06153   0.44940   0.27260   1.000
    O447    O    0.03368   0.50356   0.28434   1.000
    O448    O    0.56154   0.05060   0.27260   1.000
    O449    O    0.53369   0.99645   0.28434   1.000
    O450    O    0.03681   0.39452   0.28813   1.000
    O451    O    0.53682   0.10548   0.28813   1.000
    O452    O    0.62630   0.62748   0.30993   1.000
    O453    O    0.12629   0.87252   0.30993   1.000
    O454    O    0.37311   0.84837   0.31621   1.000
    O455    O    0.87312   0.65164   0.31621   1.000
    O456    O    0.62221   0.80737   0.28798   1.000
    O457    O    0.62434   0.74500   0.31861   1.000
    O458    O    0.12220   0.69264   0.28797   1.000
    O459    O    0.12433   0.75501   0.31861   1.000
    O460    O    0.12099   0.63961   0.31735   1.000
    O461    O    0.62100   0.86039   0.31737   1.000
    O462    O    0.19155   0.05445   0.29936   1.000
    O463    O    0.21791   0.11049   0.30683   1.000
    O464    O    0.69156   0.44555   0.29935   1.000
    O465    O    0.71792   0.38951   0.30683   1.000
    O466    O    0.71795   0.49795   0.31875   1.000
    O467    O    0.21795   0.00205   0.31877   1.000
    O468    O    0.62689   0.68378   0.34836   1.000
    O469    O    0.62924   0.62801   0.37068   1.000
    O470    O    0.12688   0.81622   0.34836   1.000
    O471    O    0.12923   0.87200   0.37068   1.000
    O472    O    0.87901   0.81740   0.36038   1.000
    O473    O    0.87695   0.75781   0.36866   1.000
    O474    O    0.37901   0.68261   0.36039   1.000
    O475    O    0.37694   0.74220   0.36866   1.000
    O476    O    0.62636   0.73577   0.37859   1.000
    O477    O    0.12635   0.76424   0.37859   1.000
    O478    O    0.87079   0.62932   0.37198   1.000
    O479    O    0.87371   0.69007   0.37251   1.000
    O480    O    0.37077   0.87069   0.37199   1.000
    O481    O    0.37371   0.80994   0.37251   1.000
    O482    O    0.15958   0.27661   0.38857   1.000
    O483    O    0.09514   0.24177   0.39042   1.000
    O484    O    0.65959   0.22340   0.38857   1.000
    O485    O    0.59515   0.25823   0.39042   1.000
    O486    O    0.71792   0.19317   0.38951   1.000
    O487    O    0.21791   0.30683   0.38951   1.000
    O488    O    0.53682   0.28813   0.39451   1.000
    O489    O    0.03681   0.21187   0.39452   1.000
    O490    O    0.37498   0.77169   0.43171   1.000
    O491    O    0.87498   0.72832   0.43171   1.000
    O492    O    0.69156   0.20063   0.44554   1.000
    O493    O    0.19155   0.29937   0.44554   1.000
    O494    O    0.56154   0.27261   0.44939   1.000
    O495    O    0.06153   0.22739   0.44940   1.000
    O496    O    0.40708   0.74904   0.49237   1.000
    O497    O    0.34149   0.78619   0.49437   1.000
    O498    O    0.90709   0.75096   0.49237   1.000
    O499    O    0.84150   0.71382   0.49437   1.000
    O500    O    0.96633   0.78434   0.49644   1.000
    O501    O    0.46632   0.71566   0.49644   1.000
    O502    O    0.21795   0.31878   0.49795   1.000
    O503    O    0.15851   0.28619   0.50561   1.000
    O504    O    0.71796   0.18122   0.49795   1.000
    O505    O    0.65852   0.21382   0.50561   1.000
    O506    O    0.53369   0.28435   0.50355   1.000
    O507    O    0.59293   0.25097   0.50762   1.000
    O508    O    0.03368   0.21566   0.50355   1.000
    O509    O    0.09292   0.24904   0.50762   1.000
    O510    O    0.28205   0.81878   0.50204   1.000
    O511    O    0.78206   0.68122   0.50204   1.000
    O512    O    0.93848   0.77261   0.55059   1.000
    O513    O    0.43847   0.72740   0.55060   1.000
    O514    O    0.30845   0.79938   0.55445   1.000
    O515    O    0.80846   0.70063   0.55445   1.000
    O516    O    0.12503   0.27168   0.56829   1.000
    O517    O    0.62503   0.22832   0.56829   1.000
    O518    O    0.46319   0.71187   0.60548   1.000
    O519    O    0.40486   0.74178   0.60957   1.000
    O520    O    0.96319   0.78814   0.60548   1.000
    O521    O    0.90486   0.75823   0.60957   1.000
    O522    O    0.78209   0.69318   0.61049   1.000
    O523    O    0.84043   0.72340   0.61142   1.000
    O524    O    0.28209   0.80683   0.61049   1.000
    O525    O    0.34042   0.77661   0.61142   1.000
    O526    O    0.37365   0.26424   0.62140   1.000
    O527    O    0.87366   0.23577   0.62139   1.000
    O528    O    0.87078   0.12801   0.62931   1.000
    O529    O    0.37078   0.37200   0.62931   1.000
    O530    O    0.12630   0.30993   0.62748   1.000
    O531    O    0.12306   0.24220   0.63134   1.000
    O532    O    0.62630   0.19007   0.62748   1.000
    O533    O    0.62307   0.25780   0.63134   1.000
    O534    O    0.62924   0.12931   0.62800   1.000
    O535    O    0.12923   0.37069   0.62800   1.000
    O536    O    0.12100   0.18260   0.63961   1.000
    O537    O    0.62100   0.31740   0.63961   1.000
    O538    O    0.37199   0.75391   0.68983   1.000
    O539    O    0.87200   0.74610   0.68983   1.000
    O540    O    0.62690   0.15164   0.68378   1.000
    O541    O    0.12689   0.34836   0.68378   1.000
    O542    O    0.87313   0.18378   0.65163   1.000
    O543    O    0.87567   0.24500   0.68135   1.000
    O544    O    0.37312   0.31622   0.65164   1.000
    O545    O    0.37568   0.25500   0.68138   1.000
    O546    O    0.12220   0.21201   0.69263   1.000
    O547    O    0.62221   0.28799   0.69263   1.000
    O548    O    0.87372   0.12748   0.69007   1.000
    O549    O    0.37371   0.37252   0.69007   1.000
    O550    O    0.37901   0.13961   0.68260   1.000
    O551    O    0.87902   0.36039   0.68260   1.000
    O552    O    0.78206   0.99796   0.68122   1.000
    O553    O    0.28205   0.50205   0.68122   1.000
    O554    O    0.12218   0.72490   0.70942   1.000
    O555    O    0.62219   0.77511   0.70942   1.000
    O556    O    0.28209   0.61049   0.69317   1.000
    O557    O    0.78210   0.88952   0.69317   1.000
    O558    O    0.46319   0.89453   0.70786   1.000
    O559    O    0.80846   0.94555   0.70062   1.000
    O560    O    0.84150   0.00562   0.71381   1.000
    O561    O    0.30845   0.55446   0.70063   1.000
    O562    O    0.34150   0.49438   0.71382   1.000
    O563    O    0.96320   0.60548   0.71186   1.000
    O564    O    0.12218   0.79059   0.72490   1.000
    O565    O    0.62219   0.70942   0.72490   1.000
    O566    O    0.96633   0.49645   0.71566   1.000
    O567    O    0.46633   0.00356   0.71566   1.000
    O568    O    0.84043   0.88858   0.72340   1.000
    O569    O    0.34043   0.61143   0.72340   1.000
    O570    O    0.87780   0.30736   0.71198   1.000
    O571    O    0.87695   0.36866   0.74219   1.000
    O572    O    0.37781   0.19264   0.71201   1.000
    O573    O    0.37695   0.13134   0.74219   1.000
    O574    O    0.87713   0.25000   0.74997   1.000
    O575    O    0.37713   0.25000   0.75001   1.000
    O576    O    0.12636   0.37860   0.73576   1.000
    O577    O    0.12433   0.31862   0.74500   1.000
    O578    O    0.62637   0.12140   0.73576   1.000
    O579    O    0.62434   0.18138   0.74500   1.000
    O580    O    0.37498   0.43172   0.72832   1.000
    O581    O    0.37694   0.36867   0.75780   1.000
    O582    O    0.87499   0.06829   0.72832   1.000
    O583    O    0.87695   0.13134   0.75780   1.000
    O584    O    0.43847   0.94941   0.72739   1.000
    O585    O    0.40486   0.89043   0.74177   1.000
    O586    O    0.93848   0.55060   0.72739   1.000
    O587    O    0.90487   0.60958   0.74177   1.000
    O588    O    0.90709   0.49238   0.74904   1.000
    O589    O    0.40709   0.00763   0.74904   1.000
    O590    O    0.90709   0.00763   0.75096   1.000
    O591    O    0.40709   0.49238   0.75097   1.000
    O592    O    0.62289   0.25000   0.75000   1.000
    O593    O    0.62434   0.31862   0.75500   1.000
    O594    O    0.12288   0.25000   0.75000   1.000
    O595    O    0.12434   0.18138   0.75500   1.000
    O596    O    0.87200   0.81018   0.74610   1.000
    O597    O    0.90487   0.89043   0.75823   1.000
    O598    O    0.37199   0.68983   0.74610   1.000
    O599    O    0.40486   0.60958   0.75822   1.000
    O600    O    0.37199   0.81018   0.75390   1.000
    O601    O    0.37199   0.74610   0.81017   1.000
    O602    O    0.56482   0.75000   0.75000   1.000
    O603    O    0.67948   0.75001   0.75000   1.000
    O604    O    0.62219   0.79059   0.77510   1.000
    O605    O    0.62219   0.72490   0.79058   1.000
    O606    O    0.06481   0.75001   0.75000   1.000
    O607    O    0.17948   0.75000   0.75000   1.000
    O608    O    0.12218   0.70942   0.77510   1.000
    O609    O    0.12218   0.77511   0.79058   1.000
    O610    O    0.87200   0.68983   0.75390   1.000
    O611    O    0.87200   0.75391   0.81017   1.000
    O612    O    0.12636   0.12140   0.76419   1.000
    O613    O    0.62637   0.37860   0.76419   1.000
    O614    O    0.34042   0.88858   0.77640   1.000
    O615    O    0.84043   0.61143   0.77660   1.000
    O616    O    0.12220   0.28799   0.80736   1.000
    O617    O    0.62221   0.21201   0.80736   1.000
    O618    O    0.87498   0.43171   0.77168   1.000
    O619    O    0.84151   0.49438   0.78618   1.000
    O620    O    0.37498   0.06829   0.77168   1.000
    O621    O    0.34150   0.00562   0.78619   1.000
    O622    O    0.93848   0.94941   0.77261   1.000
    O623    O    0.96633   0.00356   0.78434   1.000
    O624    O    0.43848   0.55060   0.77261   1.000
    O625    O    0.46632   0.49645   0.78435   1.000
    O626    O    0.46319   0.60549   0.78813   1.000
    O627    O    0.96320   0.89452   0.78813   1.000
    O628    O    0.37371   0.12748   0.80993   1.000
    O629    O    0.87372   0.37252   0.80993   1.000
    O630    O    0.62690   0.34837   0.81622   1.000
    O631    O    0.12689   0.15164   0.81622   1.000
    O632    O    0.37780   0.30737   0.78799   1.000
    O633    O    0.37567   0.24500   0.81862   1.000
    O634    O    0.87782   0.19264   0.78799   1.000
    O635    O    0.87569   0.25500   0.81852   1.000
    O636    O    0.37901   0.36039   0.81740   1.000
    O637    O    0.87902   0.13961   0.81740   1.000
    O638    O    0.30845   0.94555   0.79917   1.000
    O639    O    0.28209   0.88952   0.80660   1.000
    O640    O    0.80846   0.55446   0.79937   1.000
    O641    O    0.78210   0.61049   0.80682   1.000
    O642    O    0.78207   0.50205   0.81878   1.000
    O643    O    0.28206   0.99796   0.81878   1.000
    O644    O    0.37312   0.18378   0.84836   1.000
    O645    O    0.37077   0.12801   0.87066   1.000
    O646    O    0.87313   0.31622   0.84826   1.000
    O647    O    0.87079   0.37199   0.87068   1.000
    O648    O    0.62100   0.18260   0.86039   1.000
    O649    O    0.62307   0.24220   0.86866   1.000
    O650    O    0.12100   0.31740   0.86039   1.000
    O651    O    0.12306   0.25780   0.86866   1.000
    O652    O    0.87365   0.26423   0.87850   1.000
    O653    O    0.37365   0.23577   0.87860   1.000
    O654    O    0.62924   0.37069   0.87199   1.000
    O655    O    0.62630   0.30993   0.87252   1.000
    O656    O    0.12923   0.12931   0.87199   1.000
    O657    O    0.12630   0.19007   0.87252   1.000
    O658    O    0.34043   0.72340   0.88857   1.000
    O659    O    0.40486   0.75823   0.89043   1.000
    O660    O    0.84043   0.77661   0.88857   1.000
    O661    O    0.90487   0.74178   0.89043   1.000
    O662    O    0.28209   0.69318   0.88951   1.000
    O663    O    0.78210   0.80683   0.88951   1.000
    O664    O    0.96320   0.71187   0.89452   1.000
    O665    O    0.46319   0.78814   0.89452   1.000
    O666    O    0.12503   0.22832   0.93169   1.000
    O667    O    0.62503   0.27168   0.93169   1.000
    O668    O    0.80846   0.79938   0.94554   1.000
    O669    O    0.30845   0.70064   0.94554   1.000
    O670    O    0.93848   0.72740   0.94940   1.000
    O671    O    0.43847   0.77261   0.94940   1.000
loop_
    _geom_bond_atom_site_label_1
    _geom_bond_atom_site_label_2
    _geom_bond_distance
    _geom_bond_site_symmetry_2
    _ccdc_geom_bond_type
    C44    O320      0.54477  1_554   S
    C171   O320      0.54477      .   S
    C9     O321      0.54481  1_554   S
    C121   O321      0.54481      .   S
    C243   O322      0.69504      .   S
    C244   O322      0.69504      .   S
    C243   O323      0.70150  1_554   S
    C242   O323      0.70150      .   S
    C243   O324      0.54469  1_554   S
    C94    O324      0.54469      .   S
    C213   O325      0.69504      .   S
    C214   O325      0.69504      .   S
    C213   O326      0.70150  1_554   S
    C212   O326      0.70150      .   S
    C213   O327      0.54469  1_554   S
    C73    O327      0.54469      .   S
    C211   O328      0.69506      .   S
    C210   O328      0.69506      .   S
    C211   O329      0.70176  1_554   S
    C212   O329      0.70176      .   S
    C211   O330      0.54485      .   S
    C72    O330      0.54485  1_556   S
    C241   O331      0.69505      .   S
    C240   O331      0.69505      .   S
    C241   O332      0.70177  1_554   S
    C242   O332      0.70177      .   S
    C241   O333      0.54485      .   S
    C93    O333      0.54485  1_556   S
    C10    O334      0.54469      .   S
    C123   O334      0.54469  1_556   S
    C45    O335      0.54469      .   S
    C173   O335      0.54469  1_556   S
    C172   O336      0.73929      .   S
    C175   O336      0.73929      .   S
    C172   O337      0.70152      .   S
    C171   O337      0.70152  1_556   S
    C172   O338      0.70132      .   S
    C173   O338      0.70132  1_556   S
    C122   O339      0.73920      .   S
    C125   O339      0.73920      .   S
    C122   O340      0.70153      .   S
    C121   O340      0.70153  1_556   S
    C122   O341      0.70132      .   S
    C123   O341      0.70132  1_556   S
    C244   O342      0.54542      .   S
    C95    O342      0.54542      .   S
    C244   O343      0.67449      .   S
    C292   O343      0.67449      .   S
    C214   O344      0.54542      .   S
    C74    O344      0.54542      .   S
    C214   O345      0.67449      .   S
    C289   O345      0.67449      .   S
    C210   O346      0.54607      .   S
    C71    O346      0.54607      .   S
    C210   O347      0.67480      .   S
    C289   O347      0.67480      .   S
    C240   O348      0.54607      .   S
    C92    O348      0.54607      .   S
    C240   O349      0.67480      .   S
    C292   O349      0.67480      .   S
    C111   O350      0.54571      .   S
    C268   O350      0.54571      .   S
    C90    O351      0.54570      .   S
    C238   O351      0.54570      .   S
    C91    O352      0.54559      .   S
    C239   O352      0.54559      .   S
    C112   O353      0.54514      .   S
    C269   O353      0.54514      .   S
    C125   O354      0.71136      .   S
    C129   O354      0.71136      .   S
    C125   O355      0.69267      .   S
    C126   O355      0.69267      .   S
    C175   O356      0.71133      .   S
    C179   O356      0.71133      .   S
    C175   O357      0.69261      .   S
    C176   O357      0.69261      .   S
    C14    O358      0.54559      .   S
    C129   O358      0.54559      .   S
    C49    O359      0.54559      .   S
    C179   O359      0.54559      .   S
    C12    O360      0.54600      .   S
    C126   O360      0.54600      .   S
    C47    O361      0.54572      .   S
    C176   O361      0.54572      .   S
    C292   O362      1.07628      .   S
    C3     O362      1.07628      .   S
    C289   O363      1.07628      .   S
    C2     O363      1.07628      .   S
    C179   O364      0.68805      .   S
    C178   O364      0.68805      .   S
    C129   O365      0.68806      .   S
    C128   O365      0.68806      .   S
    C268   O366      0.68805      .   S
    C269   O366      0.68805      .   S
    C268   O367      0.70983      .   S
    C277   O367      0.70983      .   S
    C238   O368      0.68809      .   S
    C239   O368      0.68809      .   S
    C238   O369      0.70982      .   S
    C227   O369      0.70982      .   S
    C176   O370      0.70744      .   S
    C177   O370      0.70744      .   S
    C126   O371      0.70726      .   S
    C127   O371      0.70726      .   S
    C269   O372      0.71182      .   S
    C265   O372      0.71182      .   S
    C239   O373      0.71134      .   S
    C235   O373      0.71134      .   S
    C117   O374      0.54572      .   S
    C276   O374      0.54572      .   S
    C82    O375      0.54573      .   S
    C226   O375      0.54573      .   S
    C107   O376      0.54483      .   S
    C261   O376      0.54483      .   S
    C86    O377      0.54479  1_565   S
    C231   O377      0.54479      .   S
    C309   O378      0.85194      .   S
    C6     O378      0.85194      .   S
    C312   O379      0.85165      .   S
    C7     O379      0.85165      .   S
    C85    O380      0.54607      .   S
    C230   O380      0.54607      .   S
    C106   O381      0.54609      .   S
    C260   O381      0.54609      .   S
    C261   O382      0.69509      .   S
    C260   O382      0.69509      .   S
    C261   O383      0.70135      .   S
    C262   O383      0.70135      .   S
    C231   O384      0.69507      .   S
    C230   O384      0.69507      .   S
    C231   O385      0.70157  1_545   S
    C232   O385      0.70157      .   S
    C116   O386      0.54575      .   S
    C274   O386      0.54575      .   S
    C81    O387      0.54560      .   S
    C224   O387      0.54560      .   S
    C315   O388      0.85168      .   S
    C7     O388      0.85168      .   S
    C310   O389      0.85168      .   S
    C6     O389      0.85168      .   S
    C115   O390      0.54474      .   S
    C273   O390      0.54474  1_545   S
    C80    O391      0.54473      .   S
    C223   O391      0.54473      .   S
    C230   O392      0.67481      .   S
    C291   O392      0.67481      .   S
    C260   O393      0.67478      .   S
    C294   O393      0.67478      .   S
    C226   O394      0.70743      .   S
    C227   O394      0.70743      .   S
    C226   O395      0.69262      .   S
    C225   O395      0.69262      .   S
    C276   O396      0.70742      .   S
    C277   O396      0.70742      .   S
    C276   O397      0.69263      .   S
    C275   O397      0.69263      .   S
    C227   O398      0.71734      .   S
    C237   O398      0.71734      .   S
    C277   O399      0.71734      .   S
    C267   O399      0.71734      .   S
    C178   O400      0.54573      .   S
    C48    O400      0.54573      .   S
    C178   O401      0.70984      .   S
    C167   O401      0.70984      .   S
    C128   O402      0.54573      .   S
    C13    O402      0.54573      .   S
    C128   O403      0.70985      .   S
    C137   O403      0.70985      .   S
    C235   O404      0.73924      .   S
    C232   O404      0.73924      .   S
    C235   O405      0.69263      .   S
    C236   O405      0.69263      .   S
    C265   O406      0.73922      .   S
    C262   O406      0.73922      .   S
    C265   O407      0.69240      .   S
    C266   O407      0.69240      .   S
    C224   O408      0.69500      .   S
    C223   O408      0.69500      .   S
    C224   O409      0.67463      .   S
    C290   O409      0.67463      .   S
    C274   O410      0.69499      .   S
    C273   O410      0.69499      .   S
    C274   O411      0.67449      .   S
    C295   O411      0.67449      .   S
    C273   O412      0.70124  1_545   S
    C272   O412      0.70124      .   S
    C223   O413      0.70133      .   S
    C222   O413      0.70133      .   S
    C262   O414      0.70161      .   S
    C263   O414      0.70161      .   S
    C232   O415      0.70125      .   S
    C233   O415      0.70125  1_545   S
    C127   O416      0.71743      .   S
    C137   O416      0.71743      .   S
    C127   O417      0.70990      .   S
    C138   O417      0.70990      .   S
    C177   O418      0.71735      .   S
    C167   O418      0.71735      .   S
    C177   O419      0.70980      .   S
    C168   O419      0.70980      .   S
    C291   O420      1.07626      .   S
    C2     O420      1.07626      .   S
    C291   O421      0.67451      .   S
    C234   O421      0.67451      .   S
    C294   O422      1.07624      .   S
    C3     O422      1.07624      .   S
    C294   O423      0.67449      .   S
    C264   O423      0.67449      .   S
    C317   O424      0.87314      .   S
    C6     O424      0.87314      .   S
    C319   O425      0.87314      .   S
    C7     O425      0.87314      .   S
    C2     O426      1.07625      .   S
    C290   O426      1.07625      .   S
    C2     O427      1.07619      .   S
    C288   O427      1.07619      .   S
    C3     O428      1.07626      .   S
    C295   O428      1.07626      .   S
    C3     O429      1.07619      .   S
    C293   O429      1.07619      .   S
    C318   O430      0.87323      .   S
    C7     O430      0.87323      .   S
    C316   O431      0.87323      .   S
    C6     O431      0.87323      .   S
    C6     O432      0.85164      .   S
    C311   O432      0.85164      .   S
    C6     O433      0.85164      .   S
    C308   O433      0.85164      .   S
    C7     O434      0.85165      .   S
    C314   O434      0.85165      .   S
    C7     O435      0.85163      .   S
    C313   O435      0.85163      .   S
    C20    O436      0.54573      .   S
    C138   O436      0.54573      .   S
    C41    O437      0.54574      .   S
    C168   O437      0.54574      .   S
    C290   O438      0.67480      .   S
    C220   O438      0.67480      .   S
    C295   O439      0.67479      .   S
    C270   O439      0.67479      .   S
    C167   O440      0.70744      .   S
    C166   O440      0.70744      .   S
    C137   O441      0.70736      .   S
    C136   O441      0.70736      .   S
    C222   O442      0.73925      .   S
    C225   O442      0.73925      .   S
    C222   O443      0.70145      .   S
    C221   O443      0.70145      .   S
    C272   O444      0.73925      .   S
    C275   O444      0.73925      .   S
    C272   O445      0.70158      .   S
    C271   O445      0.70158  1_545   S
    C263   O446      0.69499      .   S
    C264   O446      0.69499      .   S
    C263   O447      0.54475      .   S
    C108   O447      0.54475      .   S
    C233   O448      0.69499      .   S
    C234   O448      0.69499      .   S
    C233   O449      0.54478  1_545   S
    C87    O449      0.54478      .   S
    C264   O450      0.54573      .   S
    C109   O450      0.54573      .   S
    C234   O451      0.54572      .   S
    C88    O451      0.54572      .   S
    C225   O452      0.71135      .   S
    C229   O452      0.71135      .   S
    C275   O453      0.71135      .   S
    C279   O453      0.71135      .   S
    C168   O454      0.68805      .   S
    C169   O454      0.68805      .   S
    C138   O455      0.68805      .   S
    C139   O455      0.68805      .   S
    C237   O456      0.70743      .   S
    C236   O456      0.70743      .   S
    C237   O457      0.70982      .   S
    C228   O457      0.70982      .   S
    C267   O458      0.70741      .   S
    C266   O458      0.70741      .   S
    C267   O459      0.70982      .   S
    C278   O459      0.70982      .   S
    C266   O460      0.54557      .   S
    C110   O460      0.54557      .   S
    C236   O461      0.54533      .   S
    C89    O461      0.54533      .   S
    C270   O462      0.69508      .   S
    C271   O462      0.69508      .   S
    C270   O463      0.54608      .   S
    C113   O463      0.54608      .   S
    C220   O464      0.69505      .   S
    C221   O464      0.69505      .   S
    C220   O465      0.54607      .   S
    C78    O465      0.54607      .   S
    C221   O466      0.54500      .   S
    C79    O466      0.54500      .   S
    C271   O467      0.54479      .   S
    C114   O467      0.54479  1_565   S
    C229   O468      0.68809      .   S
    C228   O468      0.68809      .   S
    C229   O469      0.54558      .   S
    C84    O469      0.54558      .   S
    C279   O470      0.68808      .   S
    C278   O470      0.68808      .   S
    C279   O471      0.54559      .   S
    C119   O471      0.54559      .   S
    C136   O472      0.54576      .   S
    C19    O472      0.54576      .   S
    C136   O473      0.69267      .   S
    C135   O473      0.69267      .   S
    C166   O474      0.54573      .   S
    C40    O474      0.54573      .   S
    C166   O475      0.69262      .   S
    C165   O475      0.69262      .   S
    C228   O476      0.54571      .   S
    C83    O476      0.54571      .   S
    C278   O477      0.54570      .   S
    C118   O477      0.54570      .   S
    C139   O478      0.54559      .   S
    C21    O478      0.54559      .   S
    C139   O479      0.71137      .   S
    C135   O479      0.71137      .   S
    C169   O480      0.54563      .   S
    C42    O480      0.54563      .   S
    C169   O481      0.71136      .   S
    C165   O481      0.71136      .   S
    C293   O482      0.67481      .   S
    C250   O482      0.67481      .   S
    C293   O483      0.67454      .   S
    C254   O483      0.67454      .   S
    C288   O484      0.67480      .   S
    C200   O484      0.67480      .   S
    C288   O485      0.67450      .   S
    C204   O485      0.67450      .   S
    C64    O486      0.54607      .   S
    C200   O486      0.54607      .   S
    C99    O487      0.54607      .   S
    C250   O487      0.54607      .   S
    C67    O488      0.54570      .   S
    C204   O488      0.54570      .   S
    C102   O489      0.54575      .   S
    C254   O489      0.54575      .   S
    C165   O490      0.73920      .   S
    C162   O490      0.73920      .   S
    C135   O491      0.73920      .   S
    C132   O491      0.73920      .   S
    C200   O492      0.69504      .   S
    C201   O492      0.69504      .   S
    C250   O493      0.69505      .   S
    C251   O493      0.69505      .   S
    C204   O494      0.69504      .   S
    C203   O494      0.69504      .   S
    C254   O495      0.69495      .   S
    C253   O495      0.69495      .   S
    C162   O496      0.70135      .   S
    C163   O496      0.70135      .   S
    C162   O497      0.70159      .   S
    C161   O497      0.70159      .   S
    C132   O498      0.70130      .   S
    C133   O498      0.70130      .   S
    C132   O499      0.70159      .   S
    C131   O499      0.70159      .   S
    C17    O500      0.54470      .   S
    C133   O500      0.54470      .   S
    C38    O501      0.54475      .   S
    C163   O501      0.54475      .   S
    C251   O502      0.54488      .   S
    C100   O502      0.54488      .   S
    C251   O503      0.70159      .   S
    C252   O503      0.70159      .   S
    C201   O504      0.54488      .   S
    C65    O504      0.54488      .   S
    C201   O505      0.70160      .   S
    C202   O505      0.70160      .   S
    C203   O506      0.54475      .   S
    C66    O506      0.54475      .   S
    C203   O507      0.70130      .   S
    C202   O507      0.70130      .   S
    C253   O508      0.54475      .   S
    C101   O508      0.54475      .   S
    C253   O509      0.70131      .   S
    C252   O509      0.70131      .   S
    C37    O510      0.54484      .   S
    C161   O510      0.54484      .   S
    C16    O511      0.54484      .   S
    C131   O511      0.54484      .   S
    C133   O512      0.69505      .   S
    C134   O512      0.69505      .   S
    C163   O513      0.69495      .   S
    C164   O513      0.69495      .   S
    C161   O514      0.69513      .   S
    C160   O514      0.69513      .   S
    C131   O515      0.69506      .   S
    C130   O515      0.69506      .   S
    C252   O516      0.73929      .   S
    C255   O516      0.73929      .   S
    C202   O517      0.73929      .   S
    C205   O517      0.73929      .   S
    C164   O518      0.54575      .   S
    C39    O518      0.54575      .   S
    C164   O519      0.67450      .   S
    C284   O519      0.67450      .   S
    C134   O520      0.54575      .   S
    C18    O520      0.54575      .   S
    C134   O521      0.67449      .   S
    C281   O521      0.67449      .   S
    C130   O522      0.54612      .   S
    C15    O522      0.54612      .   S
    C130   O523      0.67480      .   S
    C281   O523      0.67480      .   S
    C160   O524      0.54607      .   S
    C36    O524      0.54607      .   S
    C160   O525      0.67476      .   S
    C284   O525      0.67476      .   S
    C55    O526      0.54578      .   S
    C188   O526      0.54578      .   S
    C34    O527      0.54571      .   S
    C158   O527      0.54571      .   S
    C35    O528      0.54558      .   S
    C159   O528      0.54558      .   S
    C56    O529      0.54559      .   S
    C189   O529      0.54559      .   S
    C255   O530      0.71132      .   S
    C259   O530      0.71132      .   S
    C255   O531      0.69262      .   S
    C256   O531      0.69262      .   S
    C205   O532      0.71132      .   S
    C209   O532      0.71132      .   S
    C205   O533      0.69262      .   S
    C206   O533      0.69262      .   S
    C70    O534      0.54558      .   S
    C209   O534      0.54558      .   S
    C105   O535      0.54558      .   S
    C259   O535      0.54558      .   S
    C103   O536      0.54573      .   S
    C256   O536      0.54573      .   S
    C68    O537      0.54573      .   S
    C206   O537      0.54573      .   S
    C284   O538      1.07628      .   S
    C1     O538      1.07628      .   S
    C281   O539      1.07628      .   S
    C0     O539      1.07628      .   S
    C209   O540      0.68814      .   S
    C208   O540      0.68814      .   S
    C259   O541      0.68814      .   S
    C258   O541      0.68814      .   S
    C158   O542      0.68810      .   S
    C159   O542      0.68810      .   S
    C158   O543      0.70944      .   S
    C147   O543      0.70944      .   S
    C188   O544      0.68809      .   S
    C189   O544      0.68809      .   S
    C188   O545      0.70980      .   S
    C197   O545      0.70980      .   S
    C256   O546      0.70744      .   S
    C257   O546      0.70744      .   S
    C206   O547      0.70744      .   S
    C207   O547      0.70744      .   S
    C159   O548      0.71135      .   S
    C155   O548      0.71135      .   S
    C189   O549      0.71135      .   S
    C185   O549      0.71135      .   S
    C61    O550      0.54574      .   S
    C196   O550      0.54574      .   S
    C26    O551      0.54573      .   S
    C146   O551      0.54573      .   S
    C30    O552      0.54478  1_545   S
    C151   O552      0.54478      .   S
    C51    O553      0.54488      .   S
    C181   O553      0.54488      .   S
    C300   O554      0.85164      .   S
    C5     O554      0.85164      .   S
    C297   O555      0.85165      .   S
    C4     O555      0.85165      .   S
    C50    O556      0.54607      .   S
    C180   O556      0.54607      .   S
    C29    O557      0.54606      .   S
    C150   O557      0.54606      .   S
    C60    O558      0.58158      .   S
    C194   O558      0.58158      .   S
    C151   O559      0.69508      .   S
    C150   O559      0.69508      .   S
    C151   O560      0.70163  1_565   S
    C152   O560      0.70163      .   S
    C181   O561      0.69509      .   S
    C180   O561      0.69509      .   S
    C181   O562      0.70160      .   S
    C182   O562      0.70160      .   S
    C25    O563      0.54574      .   S
    C144   O563      0.54574      .   S
    C303   O564      0.85163      .   S
    C5     O564      0.85163      .   S
    C298   O565      0.85163      .   S
    C4     O565      0.85163      .   S
    C24    O566      0.54476      .   S
    C143   O566      0.54476      .   S
    C59    O567      0.54475      .   S
    C193   O567      0.54475  1_565   S
    C150   O568      0.67481      .   S
    C283   O568      0.67481      .   S
    C180   O569      0.67478      .   S
    C286   O569      0.67478      .   S
    C146   O570      0.70741      .   S
    C147   O570      0.70741      .   S
    C146   O571      0.69263      .   S
    C145   O571      0.69263      .   S
    C196   O572      0.70743      .   S
    C197   O572      0.70743      .   S
    C196   O573      0.69263      .   S
    C195   O573      0.69263      .   S
    C147   O574      0.71782      .   S
    C157   O574      0.71782      .   S
    C197   O575      0.71734      .   S
    C187   O575      0.71734      .   S
    C258   O576      0.54569      .   S
    C104   O576      0.54569      .   S
    C258   O577      0.70980      .   S
    C247   O577      0.70980      .   S
    C208   O578      0.54569      .   S
    C69    O578      0.54569      .   S
    C208   O579      0.70980      .   S
    C217   O579      0.70980      .   S
    C185   O580      0.73925      .   S
    C182   O580      0.73925      .   S
    C185   O581      0.69263      .   S
    C186   O581      0.69263      .   S
    C155   O582      0.73925      .   S
    C152   O582      0.73925      .   S
    C155   O583      0.69262      .   S
    C156   O583      0.69262      .   S
    C194   O584      0.69500      .   S
    C193   O584      0.69500      .   S
    C194   O585      0.67450      .   S
    C287   O585      0.67450      .   S
    C144   O586      0.69499      .   S
    C143   O586      0.69499      .   S
    C144   O587      0.67452      .   S
    C282   O587      0.67452      .   S
    C143   O588      0.70129      .   S
    C142   O588      0.70129      .   S
    C193   O589      0.70126  1_565   S
    C192   O589      0.70126      .   S
    C152   O590      0.70123      .   S
    C153   O590      0.70123  1_565   S
    C182   O591      0.70132      .   S
    C183   O591      0.70132      .   S
    C207   O592      0.71735      .   S
    C217   O592      0.71735      .   S
    C207   O593      0.70979      .   S
    C218   O593      0.70979      .   S
    C257   O594      0.71735      .   S
    C247   O594      0.71735      .   S
    C257   O595      0.70979      .   S
    C248   O595      0.70979      .   S
    C283   O596      1.07625      .   S
    C0     O596      1.07625      .   S
    C283   O597      0.67450      .   S
    C154   O597      0.67450      .   S
    C286   O598      1.07625      .   S
    C1     O598      1.07625      .   S
    C286   O599      0.67450      .   S
    C184   O599      0.67450      .   S
    C1     O600      1.07625      .   S
    C287   O600      1.07625      .   S
    C1     O601      1.07628      .   S
    C285   O601      1.07628      .   S
    C4     O602      0.87314      .   S
    C305   O602      0.87314      .   S
    C4     O603      0.87323      .   S
    C304   O603      0.87323      .   S
    C4     O604      0.85165      .   S
    C299   O604      0.85165      .   S
    C4     O605      0.85164      .   S
    C296   O605      0.85164      .   S
    C5     O606      0.87314      .   S
    C307   O606      0.87314      .   S
    C5     O607      0.87323      .   S
    C306   O607      0.87323      .   S
    C5     O608      0.85164      .   S
    C302   O608      0.85164      .   S
    C5     O609      0.85164      .   S
    C301   O609      0.85164      .   S
    C0     O610      1.07625      .   S
    C282   O610      1.07625      .   S
    C0     O611      1.07628      .   S
    C280   O611      1.07628      .   S
    C97    O612      0.54604      .   S
    C248   O612      0.54604      .   S
    C76    O613      0.54604      .   S
    C218   O613      0.54604      .   S
    C287   O614      0.67305      .   S
    C190   O614      0.67305      .   S
    C282   O615      0.67479      .   S
    C140   O615      0.67479      .   S
    C247   O616      0.70744      .   S
    C246   O616      0.70744      .   S
    C217   O617      0.70744      .   S
    C216   O617      0.70744      .   S
    C142   O618      0.73925      .   S
    C145   O618      0.73925      .   S
    C142   O619      0.70159      .   S
    C141   O619      0.70159      .   S
    C192   O620      0.73925      .   S
    C195   O620      0.73925      .   S
    C192   O621      0.70162      .   S
    C191   O621      0.70162  1_565   S
    C153   O622      0.69499      .   S
    C154   O622      0.69499      .   S
    C153   O623      0.54474  1_565   S
    C31    O623      0.54474      .   S
    C183   O624      0.69499      .   S
    C184   O624      0.69499      .   S
    C183   O625      0.54470      .   S
    C52    O625      0.54470      .   S
    C184   O626      0.54575      .   S
    C53    O626      0.54575      .   S
    C154   O627      0.54574      .   S
    C32    O627      0.54574      .   S
    C195   O628      0.71134      .   S
    C199   O628      0.71134      .   S
    C145   O629      0.71134      .   S
    C149   O629      0.71134      .   S
    C218   O630      0.68814      .   S
    C219   O630      0.68814      .   S
    C248   O631      0.68814      .   S
    C249   O631      0.68814      .   S
    C187   O632      0.70742      .   S
    C186   O632      0.70742      .   S
    C187   O633      0.70983      .   S
    C198   O633      0.70983      .   S
    C157   O634      0.70743      .   S
    C156   O634      0.70743      .   S
    C157   O635      0.70836      .   S
    C148   O635      0.70836      .   S
    C186   O636      0.54572      .   S
    C54    O636      0.54572      .   S
    C156   O637      0.54573      .   S
    C33    O637      0.54573      .   S
    C190   O638      0.69544      .   S
    C191   O638      0.69544      .   S
    C190   O639      0.54721      .   S
    C57    O639      0.54721      .   S
    C140   O640      0.69508      .   S
    C141   O640      0.69508      .   S
    C140   O641      0.54605      .   S
    C22    O641      0.54605      .   S
    C141   O642      0.54487      .   S
    C23    O642      0.54487      .   S
    C191   O643      0.54478      .   S
    C58    O643      0.54478  1_545   S
    C199   O644      0.68810      .   S
    C198   O644      0.68810      .   S
    C199   O645      0.54528      .   S
    C63    O645      0.54528      .   S
    C149   O646      0.68797      .   S
    C148   O646      0.68797      .   S
    C149   O647      0.54558      .   S
    C28    O647      0.54558      .   S
    C216   O648      0.54572      .   S
    C75    O648      0.54572      .   S
    C216   O649      0.69262      .   S
    C215   O649      0.69262      .   S
    C246   O650      0.54572      .   S
    C96    O650      0.54572      .   S
    C246   O651      0.69262      .   S
    C245   O651      0.69262      .   S
    C148   O652      0.54731      .   S
    C27    O652      0.54731      .   S
    C198   O653      0.54572      .   S
    C62    O653      0.54572      .   S
    C219   O654      0.54559      .   S
    C77    O654      0.54559      .   S
    C219   O655      0.71133      .   S
    C215   O655      0.71133      .   S
    C249   O656      0.54559      .   S
    C98    O656      0.54559      .   S
    C249   O657      0.71133      .   S
    C245   O657      0.71133      .   S
    C285   O658      0.67475      .   S
    C170   O658      0.67475      .   S
    C285   O659      0.67449      .   S
    C174   O659      0.67449      .   S
    C280   O660      0.67476      .   S
    C120   O660      0.67476      .   S
    C280   O661      0.67449      .   S
    C124   O661      0.67449      .   S
    C43    O662      0.54607      .   S
    C170   O662      0.54607      .   S
    C8     O663      0.54607      .   S
    C120   O663      0.54607      .   S
    C11    O664      0.54575      .   S
    C124   O664      0.54575      .   S
    C46    O665      0.54575      .   S
    C174   O665      0.54575      .   S
    C245   O666      0.73885      .   S
    C242   O666      0.73885      .   S
    C215   O667      0.73885      .   S
    C212   O667      0.73885      .   S
    C120   O668      0.69513      .   S
    C121   O668      0.69513      .   S
    C170   O669      0.69515      .   S
    C171   O669      0.69515      .   S
    C124   O670      0.69495      .   S
    C123   O670      0.69495      .   S
    C174   O671      0.69496      .   S
    C173   O671      0.69496      .   S
