# CIF file generated by openbabel 2.4.90, see http://openbabel.sf.net
data_I
_chemical_name_common ''
_cell_length_a 9.796
_cell_length_b 11.607
_cell_length_c 13.79
_cell_angle_alpha 65.865
_cell_angle_beta 88.867
_cell_angle_gamma 81.927
_space_group_name_H-M_alt 'P 1'
_space_group_name_Hall 'P 1'
loop_
    _symmetry_equiv_pos_as_xyz
    x,y,z
loop_
    _atom_site_label
    _atom_site_type_symbol
    _atom_site_fract_x
    _atom_site_fract_y
    _atom_site_fract_z
    _atom_site_occupancy
    H0      H    0.30195   0.46177   0.91225   1.000
    H1      H    0.62675   0.68116   0.89964   1.000
    H2      H    0.63109   0.06404   0.11750   1.000
    H3      H    0.29328   0.89223   0.06625   1.000
    H4      H    0.13120   0.59310   0.59619   1.000
    H5      H    0.77172   0.61163   0.41080   1.000
    H6      H    0.69792   0.53829   0.08775   1.000
    H7      H    0.37311   0.31891   0.10036   1.000
    H8      H    0.36865   0.93614   0.88244   1.000
    H9      H    0.70648   0.10796   0.93369   1.000
    H10     H    0.86869   0.40696   0.40375   1.000
    H11     H    0.22817   0.38843   0.58914   1.000
    C12     C    0.46002   0.58076   0.89344   1.000
    C13     C    0.38835   0.47854   0.95090   1.000
    C14     C    0.57191   0.60126   0.94398   1.000
    C15     C    0.45770   0.97501   0.10393   1.000
    C16     C    0.57448   0.03571   0.06567   1.000
    C17     C    0.38336   0.93980   0.03690   1.000
    C18     C    0.94565   0.61778   0.50137   1.000
    C19     C    0.07470   0.55465   0.55157   1.000
    C20     C    0.87124   0.56183   0.45023   1.000
    C21     C    0.53985   0.41930   0.10656   1.000
    C22     C    0.61152   0.52152   0.04910   1.000
    C23     C    0.42796   0.39880   0.05602   1.000
    C24     C    0.54220   0.02498   0.89606   1.000
    C25     C    0.42533   0.96439   0.93430   1.000
    C26     C    0.61647   0.06028   0.96306   1.000
    C27     C    0.05424   0.38227   0.49857   1.000
    C28     C    0.92519   0.44541   0.44837   1.000
    C29     C    0.12865   0.43823   0.54970   1.000
loop_
    _geom_bond_atom_site_label_1
    _geom_bond_atom_site_label_2
    _geom_bond_distance
    _geom_bond_site_symmetry_2
    _ccdc_geom_bond_type
    C17    H3        1.08965      .   S
    C17    C15       1.40387      .   S
    C17    C25       1.39010  1_554   S
    C22    H6        1.08965      .   S
    C22    C21       1.40413      .   S
    C22    C14       1.39027  1_554   S
    C23    H7        1.08892      .   S
    C23    C21       1.40803      .   S
    C23    C13       1.39029  1_554   S
    C16    C15       1.40786  1_545   S
    C16    H2        1.08892      .   S
    C16    C26       1.39011  1_554   S
    H10    C28       1.09155      .   S
    H5     C20       1.08899      .   S
    C28    C20       1.39042      .   S
    C28    C27       1.40496  1_655   S
    C20    C18       1.40648      .   S
    C27    C29       1.40649      .   S
    C18    C19       1.40496  1_655   S
    C29    C19       1.39040      .   S
    C29    H11       1.08898      .   S
    C19    H4        1.09155      .   S
    H8     C25       1.08894      .   S
    C12    C14       1.40803      .   S
    C12    C13       1.40412      .   S
    C24    C25       1.40799  1_545   S
    C24    C26       1.40386      .   S
    H1     C14       1.08892      .   S
    H0     C13       1.08965      .   S
    H9     C26       1.08965      .   S
