# CIF file generated by openbabel 2.4.90, see http://openbabel.sf.net
data_I
_chemical_name_common ''
_cell_length_a 9.796
_cell_length_b 11.607
_cell_length_c 13.79
_cell_angle_alpha 65.865
_cell_angle_beta 88.867
_cell_angle_gamma 81.927
_space_group_name_H-M_alt 'P 1'
_space_group_name_Hall 'P 1'
loop_
    _symmetry_equiv_pos_as_xyz
    x,y,z
loop_
    _atom_site_label
    _atom_site_type_symbol
    _atom_site_fract_x
    _atom_site_fract_y
    _atom_site_fract_z
    _atom_site_occupancy
    Cd0     Cd   0.83067   0.13141   0.50967   1.000
    Cd1     Cd   0.49994   0.00002   0.49999   1.000
    C2      C    0.42088   0.66685   0.78291   1.000
    C3      C    0.41672   0.95095   0.21225   1.000
    C4      C    0.88371   0.73921   0.50272   1.000
    C5      C    0.57899   0.33321   0.21709   1.000
    C6      C    0.58320   0.04902   0.78775   1.000
    Cd7     Cd   0.16923   0.86862   0.49031   1.000
    C8      C    0.11618   0.26084   0.49723   1.000
    N9      N    0.50031   0.75478   0.72288   1.000
    N10     N    0.43199   0.81651   0.63024   1.000
    N11     N    0.31416   0.76796   0.63292   1.000
    N12     N    0.30443   0.67294   0.72843   1.000
    N13     N    0.29532   0.91588   0.25467   1.000
    N14     N    0.30594   0.91008   0.35329   1.000
    N15     N    0.42930   0.93984   0.36951   1.000
    N16     N    0.50010   0.96552   0.28251   1.000
    N17     N    0.74648   0.77265   0.50271   1.000
    N18     N    0.73013   0.88762   0.50435   1.000
    N19     N    0.85104   0.92611   0.50489   1.000
    N20     N    0.95085   0.83336   0.50376   1.000
    N21     N    0.49957   0.24528   0.27712   1.000
    N22     N    0.56789   0.18355   0.36976   1.000
    N23     N    0.68571   0.23211   0.36708   1.000
    N24     N    0.69543   0.32713   0.27158   1.000
    N25     N    0.70459   0.08413   0.74532   1.000
    N26     N    0.69396   0.08993   0.64670   1.000
    N27     N    0.57061   0.06016   0.63048   1.000
    N28     N    0.49981   0.03447   0.71749   1.000
    N29     N    0.25341   0.22740   0.49724   1.000
    N30     N    0.26976   0.11242   0.49562   1.000
    N31     N    0.14885   0.07392   0.49508   1.000
    N32     N    0.04904   0.16668   0.49620   1.000
loop_
    _geom_bond_atom_site_label_1
    _geom_bond_atom_site_label_2
    _geom_bond_distance
    _geom_bond_site_symmetry_2
    _ccdc_geom_bond_type
    C3     N13       1.35502      .   S
    C3     N16       1.35593      .   S
    C5     N24       1.35589      .   S
    C5     N21       1.35606      .   S
    N13    N14       1.33929      .   S
    N24    N23       1.34044      .   S
    N21    N22       1.32056      .   S
    N16    N15       1.31986      .   S
    N14    N15       1.34940      .   S
    N14    Cd7       2.22100      .   S
    N23    N22       1.34727      .   S
    N23    Cd0       2.23910      .   S
    N15    Cd1       2.32743  1_565   S
    N22    Cd1       2.32993      .   S
    Cd7    N31       2.39095  1_565   S
    Cd7    N20       2.22404  1_455   S
    Cd7    N11       2.23910      .   S
    N31    N30       1.32455      .   S
    N31    N32       1.35379      .   S
    N30    N29       1.33091      .   S
    N30    Cd1       2.43001      .   S
    N32    C8        1.35716      .   S
    N32    Cd0       2.22405  1_455   S
    C8     N29       1.34578      .   S
    Cd1    N18       2.43010  1_545   S
    Cd1    N10       2.32993  1_545   S
    Cd1    N27       2.32737      .   S
    N17    C4        1.34579      .   S
    N17    N18       1.33091      .   S
    C4     N20       1.35716      .   S
    N20    N19       1.35378      .   S
    N18    N19       1.32454      .   S
    N19    Cd0       2.39097  1_565   S
    Cd0    N26       2.22101      .   S
    N10    N11       1.34726      .   S
    N10    N9        1.32055      .   S
    N27    N26       1.34941      .   S
    N27    N28       1.31986      .   S
    N11    N12       1.34044      .   S
    N26    N25       1.33929      .   S
    N28    C6        1.35589      .   S
    N9     C2        1.35607      .   S
    N12    C2        1.35589      .   S
    N25    C6        1.35502      .   S
