# CIF file generated by openbabel 2.4.90, see http://openbabel.sf.net
data_I
_chemical_name_common ''
_cell_length_a 9.796
_cell_length_b 11.607
_cell_length_c 13.79
_cell_angle_alpha 65.865
_cell_angle_beta 88.867
_cell_angle_gamma 81.927
_space_group_name_H-M_alt 'P 1'
_space_group_name_Hall 'P 1'
loop_
    _symmetry_equiv_pos_as_xyz
    x,y,z
loop_
    _atom_site_label
    _atom_site_type_symbol
    _atom_site_fract_x
    _atom_site_fract_y
    _atom_site_fract_z
    _atom_site_occupancy
    Zr0     Zr   0.16923   0.86862   0.49031   1.000
    Zr1     Zr   0.83067   0.13141   0.50967   1.000
    Zr2     Zr   0.49994   0.00002   0.49999   1.000
    Zr3     Zr   0.42088   0.66685   0.78291   1.000
    Zr4     Zr   0.41672   0.95095   0.21225   1.000
    Zr5     Zr   0.88371   0.73921   0.50272   1.000
    Zr6     Zr   0.57899   0.33321   0.21709   1.000
    Zr7     Zr   0.58320   0.04902   0.78775   1.000
    Zr8     Zr   0.11618   0.26084   0.49723   1.000
    Zr9     Zr   0.50031   0.75478   0.72288   1.000
    Zr10    Zr   0.43199   0.81651   0.63024   1.000
    Zr11    Zr   0.31416   0.76796   0.63292   1.000
    Zr12    Zr   0.30443   0.67294   0.72843   1.000
    Zr13    Zr   0.29532   0.91588   0.25467   1.000
    Zr14    Zr   0.30594   0.91008   0.35329   1.000
    Zr15    Zr   0.42930   0.93984   0.36951   1.000
    Zr16    Zr   0.50010   0.96552   0.28251   1.000
    Zr17    Zr   0.74648   0.77265   0.50271   1.000
    Zr18    Zr   0.73013   0.88762   0.50435   1.000
    Zr19    Zr   0.85104   0.92611   0.50489   1.000
    Zr20    Zr   0.95085   0.83336   0.50376   1.000
    Zr21    Zr   0.49957   0.24528   0.27712   1.000
    Zr22    Zr   0.56789   0.18355   0.36976   1.000
    Zr23    Zr   0.68571   0.23211   0.36708   1.000
    Zr24    Zr   0.69543   0.32713   0.27158   1.000
    Zr25    Zr   0.70459   0.08413   0.74532   1.000
    Zr26    Zr   0.69396   0.08993   0.64670   1.000
    Zr27    Zr   0.57061   0.06016   0.63048   1.000
    Zr28    Zr   0.49981   0.03447   0.71749   1.000
    Zr29    Zr   0.25341   0.22740   0.49724   1.000
    Zr30    Zr   0.26976   0.11242   0.49562   1.000
    Zr31    Zr   0.14885   0.07392   0.49508   1.000
    Zr32    Zr   0.04904   0.16668   0.49620   1.000
    O33     O    0.35602   0.93342   0.23346   1.000
    O34     O    0.45841   0.95824   0.24738   1.000
    O35     O    0.63721   0.33017   0.24434   1.000
    O36     O    0.53928   0.28925   0.24711   1.000
    O37     O    0.30063   0.91298   0.30398   1.000
    O38     O    0.69057   0.27962   0.31933   1.000
    O39     O    0.53373   0.21441   0.32344   1.000
    O40     O    0.46470   0.95268   0.32601   1.000
    O41     O    0.36762   0.92496   0.36140   1.000
    O42     O    0.23758   0.88935   0.42180   1.000
    O43     O    0.62680   0.20783   0.36842   1.000
    O44     O    0.75819   0.18176   0.43838   1.000
    O45     O    0.46462   0.96993   0.43475   1.000
    O46     O    0.53392   0.09178   0.43487   1.000
    O47     O    0.15904   0.97127   0.49270   1.000
    O48     O    0.06004   0.85099   0.49704   1.000
    O49     O    0.24169   0.81829   0.56162   1.000
    O50     O    0.20931   0.09317   0.49535   1.000
    O51     O    0.09895   0.12030   0.49564   1.000
    O52     O    0.26158   0.16991   0.49643   1.000
    O53     O    0.38485   0.05622   0.49781   1.000
    O54     O    0.08261   0.21376   0.49671   1.000
    O55     O    0.93986   0.14905   0.50294   1.000
    O56     O    0.18479   0.24412   0.49723   1.000
    O57     O    0.61504   0.94382   0.50217   1.000
    O58     O    0.46597   0.90826   0.56511   1.000
    O59     O    0.53527   0.03009   0.56524   1.000
    O60     O    0.81510   0.75593   0.50272   1.000
    O61     O    0.73831   0.83013   0.50353   1.000
    O62     O    0.91728   0.78629   0.50324   1.000
    O63     O    0.90094   0.87974   0.50433   1.000
    O64     O    0.79058   0.90687   0.50462   1.000
    O65     O    0.84085   0.02876   0.50728   1.000
    O66     O    0.76232   0.11067   0.57818   1.000
    O67     O    0.37307   0.79223   0.63158   1.000
    O68     O    0.46615   0.78564   0.67656   1.000
    O69     O    0.63228   0.07505   0.63859   1.000
    O70     O    0.53521   0.04731   0.67399   1.000
    O71     O    0.30930   0.72045   0.68067   1.000
    O72     O    0.69928   0.08703   0.69601   1.000
    O73     O    0.54151   0.04174   0.75262   1.000
    O74     O    0.46059   0.71081   0.75289   1.000
    O75     O    0.36266   0.66990   0.75567   1.000
    O76     O    0.64389   0.06658   0.76654   1.000
    N77     N    0.49993   0.50003   0.00000   1.000
    O78     O    0.47019   0.56192   0.91909   1.000
    O79     O    0.52968   0.43815   0.08091   1.000
    N80     N    0.49990   0.00005   0.99998   1.000
    O81     O    0.46856   0.98152   0.07904   1.000
    O82     O    0.53130   0.01853   0.92094   1.000
    N83     N    0.99995   0.50003   0.49997   1.000
    O84     O    0.95731   0.58926   0.50101   1.000
    O85     O    0.04258   0.41079   0.49893   1.000
loop_
    _geom_bond_atom_site_label_1
    _geom_bond_atom_site_label_2
    _geom_bond_distance
    _geom_bond_site_symmetry_2
    _ccdc_geom_bond_type
    Zr4    O33       0.67751      .   S
    Zr13   O33       0.67751      .   S
    Zr4    O34       0.67796      .   S
    Zr16   O34       0.67796      .   S
    Zr6    O35       0.67794      .   S
    Zr24   O35       0.67794      .   S
    Zr6    O36       0.67803      .   S
    Zr21   O36       0.67803      .   S
    Zr13   O37       0.66964      .   S
    Zr14   O37       0.66964      .   S
    Zr24   O38       0.67022      .   S
    Zr23   O38       0.67022      .   S
    Zr21   O39       0.66028      .   S
    Zr22   O39       0.66028      .   S
    Zr16   O40       0.65993      .   S
    Zr15   O40       0.65993      .   S
    Zr14   O41       0.67470      .   S
    Zr15   O41       0.67470      .   S
    Zr14   O42       1.11050      .   S
    Zr0    O42       1.11050      .   S
    Zr23   O43       0.67364      .   S
    Zr22   O43       0.67364      .   S
    Zr23   O44       1.11955      .   S
    Zr1    O44       1.11955      .   S
    Zr15   O45       1.16372      .   S
    Zr2    O45       1.16372  1_545   S
    Zr22   O46       1.16496      .   S
    Zr2    O46       1.16496      .   S
    Zr0    O47       1.19548      .   S
    Zr31   O47       1.19548  1_545   S
    Zr0    O48       1.11202      .   S
    Zr20   O48       1.11202  1_655   S
    Zr0    O49       1.11955      .   S
    Zr11   O49       1.11955      .   S
    Zr31   O50       0.66228      .   S
    Zr30   O50       0.66228      .   S
    Zr31   O51       0.67689      .   S
    Zr32   O51       0.67689      .   S
    Zr30   O52       0.66545      .   S
    Zr29   O52       0.66545      .   S
    Zr30   O53       1.21501      .   S
    Zr2    O53       1.21501      .   S
    Zr32   O54       0.67858      .   S
    Zr8    O54       0.67858      .   S
    Zr32   O55       1.11203  1_455   S
    Zr1    O55       1.11203      .   S
    Zr8    O56       0.67289      .   S
    Zr29   O56       0.67289      .   S
    Zr2    O57       1.21505  1_545   S
    Zr18   O57       1.21505      .   S
    Zr2    O58       1.16496  1_545   S
    Zr10   O58       1.16496      .   S
    Zr2    O59       1.16369      .   S
    Zr27   O59       1.16369      .   S
    Zr17   O60       0.67289      .   S
    Zr5    O60       0.67289      .   S
    Zr17   O61       0.66545      .   S
    Zr18   O61       0.66545      .   S
    Zr5    O62       0.67858      .   S
    Zr20   O62       0.67858      .   S
    Zr20   O63       0.67689      .   S
    Zr19   O63       0.67689      .   S
    Zr18   O64       0.66227      .   S
    Zr19   O64       0.66227      .   S
    Zr19   O65       1.19549  1_565   S
    Zr1    O65       1.19549      .   S
    Zr1    O66       1.11050      .   S
    Zr26   O66       1.11050      .   S
    Zr10   O67       0.67363      .   S
    Zr11   O67       0.67363      .   S
    Zr10   O68       0.66028      .   S
    Zr9    O68       0.66028      .   S
    Zr27   O69       0.67470      .   S
    Zr26   O69       0.67470      .   S
    Zr27   O70       0.65993      .   S
    Zr28   O70       0.65993      .   S
    Zr11   O71       0.67022      .   S
    Zr12   O71       0.67022      .   S
    Zr26   O72       0.66964      .   S
    Zr25   O72       0.66964      .   S
    Zr28   O73       0.67795      .   S
    Zr7    O73       0.67795      .   S
    Zr9    O74       0.67803      .   S
    Zr3    O74       0.67803      .   S
    Zr12   O75       0.67794      .   S
    Zr3    O75       0.67794      .   S
    Zr25   O76       0.67751      .   S
    Zr7    O76       0.67751      .   S
    N77    O78       1.06980  1_554   S
    Zr3    O78       1.80099      .   S
    N77    O79       1.06981      .   S
    Zr6    O79       1.80099      .   S
    N80    O81       1.06891  1_546   S
    Zr4    O81       1.79972      .   S
    N80    O82       1.06895      .   S
    Zr7    O82       1.79977      .   S
    N83    O84       1.06667      .   S
    Zr5    O84       1.79726      .   S
    N83    O85       1.06668  1_655   S
    Zr8    O85       1.79728      .   S
