# CIF file generated by openbabel 2.4.90, see http://openbabel.sf.net
data_I
_chemical_name_common ''
_cell_length_a 9.796
_cell_length_b 11.607
_cell_length_c 13.79
_cell_angle_alpha 65.865
_cell_angle_beta 88.867
_cell_angle_gamma 81.927
_space_group_name_H-M_alt 'P 1'
_space_group_name_Hall 'P 1'
loop_
    _symmetry_equiv_pos_as_xyz
    x,y,z
loop_
    _atom_site_label
    _atom_site_type_symbol
    _atom_site_fract_x
    _atom_site_fract_y
    _atom_site_fract_z
    _atom_site_occupancy
    Zr0     Zr   0.16923   0.86862   0.49031   1.000
    Zr1     Zr   0.83067   0.13141   0.50967   1.000
    Zr2     Zr   0.49994   0.00002   0.49999   1.000
    N3      N    0.49993   0.50003   0.00000   1.000
    N4      N    0.49990   0.00005   0.99998   1.000
    N5      N    0.99995   0.50003   0.49997   1.000
    C6      C    0.38948   0.93646   0.29445   1.000
    O7      O    0.42902   0.95899   0.18674   1.000
    O8      O    0.42705   0.95319   0.36460   1.000
    O9      O    0.31353   0.91290   0.35812   1.000
    C10     C    0.60552   0.26426   0.30053   1.000
    O11     O    0.68185   0.22301   0.36945   1.000
    O12     O    0.56972   0.17802   0.36770   1.000
    O13     O    0.56760   0.35120   0.19072   1.000
    C14     C    0.16745   0.16825   0.49627   1.000
    O15     O    0.27615   0.11224   0.49704   1.000
    O16     O    0.10501   0.28952   0.49760   1.000
    O17     O    0.16324   0.06976   0.49449   1.000
    O18     O    0.05365   0.15865   0.49961   1.000
    C19     C    0.61043   0.06354   0.70555   1.000
    O20     O    0.57087   0.04103   0.81325   1.000
    O21     O    0.68637   0.08711   0.64187   1.000
    O22     O    0.57285   0.04682   0.63539   1.000
    C23     C    0.83244   0.83179   0.50369   1.000
    O24     O    0.89488   0.71053   0.50235   1.000
    O25     O    0.94624   0.84139   0.50036   1.000
    O26     O    0.72374   0.88780   0.50293   1.000
    O27     O    0.83665   0.93028   0.50548   1.000
    C28     C    0.39435   0.73581   0.69947   1.000
    O29     O    0.43016   0.82204   0.63229   1.000
    O30     O    0.31802   0.77705   0.63054   1.000
    O31     O    0.43227   0.64886   0.80928   1.000
loop_
    _geom_bond_atom_site_label_1
    _geom_bond_atom_site_label_2
    _geom_bond_distance
    _geom_bond_site_symmetry_2
    _ccdc_geom_bond_type
    C6     O7        1.45343      .   S
    N4     O7        2.52202  1_546   S
    C6     O8        1.13884      .   S
    Zr2    O8        2.29843  1_545   S
    C6     O9        1.11099      .   S
    Zr0    O9        2.21841      .   S
    C10    O11       1.11679      .   S
    Zr1    O11       2.23368      .   S
    C10    O12       1.14475      .   S
    Zr2    O12       2.30842      .   S
    C10    O13       1.45486      .   S
    N3     O13       2.52438      .   S
    C14    O15       1.16494      .   S
    Zr2    O15       2.37958      .   S
    C14    O16       1.46101      .   S
    N5     O16       2.52742  1_655   S
    C14    O17       1.15997      .   S
    Zr0    O17       2.35133  1_565   S
    C14    O18       1.13397      .   S
    Zr1    O18       2.24426  1_655   S
    C19    O20       1.45344      .   S
    N4     O20       2.52208      .   S
    C19    O21       1.11099      .   S
    Zr1    O21       2.21841      .   S
    C19    O22       1.13883      .   S
    Zr2    O22       2.29840      .   S
    C23    O24       1.46100      .   S
    N5     O24       2.52741      .   S
    C23    O25       1.13397      .   S
    Zr0    O25       2.24426  1_455   S
    C23    O26       1.16497      .   S
    Zr2    O26       2.37965  1_545   S
    C23    O27       1.15996      .   S
    Zr1    O27       2.35133  1_545   S
    C28    O29       1.14475      .   S
    Zr2    O29       2.30842  1_545   S
    C28    O30       1.11680      .   S
    Zr0    O30       2.23370      .   S
    C28    O31       1.45485      .   S
    N3     O31       2.52437  1_554   S
