# CIF file generated by openbabel 2.4.90, see http://openbabel.sf.net
data_I
_chemical_name_common ''
_cell_length_a 14.273
_cell_length_b 15.94
_cell_length_c 19.73
_cell_angle_alpha 110.743
_cell_angle_beta 89.833
_cell_angle_gamma 116.784
_space_group_name_H-M_alt 'P 1'
_space_group_name_Hall 'P 1'
loop_
    _symmetry_equiv_pos_as_xyz
    x,y,z
loop_
    _atom_site_label
    _atom_site_type_symbol
    _atom_site_fract_x
    _atom_site_fract_y
    _atom_site_fract_z
    _atom_site_occupancy
    H0      H    0.52391   0.77938   0.71979   1.000
    H1      H    0.39996   0.85408   0.74130   1.000
    H2      H    0.20268   0.73616   0.71837   1.000
    H3      H    0.16045   0.24918   0.70721   1.000
    H4      H    0.16753   0.15441   0.57731   1.000
    H5      H    0.22625   0.24785   0.49346   1.000
    H6      H    0.15610   0.63294   0.04138   1.000
    H7      H    0.24679   0.82333   0.08858   1.000
    H8      H    0.24916   0.79504   0.86249   1.000
    H9      H    0.14983   0.60513   0.82349   1.000
    H10     H    0.34051   0.30353   0.18026   1.000
    H11     H    0.23480   0.11162   0.13560   1.000
    H12     H    0.50216   0.09530   0.04042   1.000
    H13     H    0.60001   0.28808   0.09353   1.000
    H14     H    0.74285   0.22082   0.78050   1.000
    H15     H    0.54391   0.14644   0.75911   1.000
    H16     H    0.46542   0.26455   0.78201   1.000
    H17     H    0.91271   0.75095   0.79264   1.000
    H18     H    0.00000   0.84574   0.92222   1.000
    H19     H    0.98050   0.75238   0.00602   1.000
    H20     H    0.52199   0.36776   0.45891   1.000
    H21     H    0.42228   0.17737   0.41141   1.000
    H22     H    0.45478   0.20480   0.63715   1.000
    H23     H    0.54536   0.39476   0.67650   1.000
    H24     H    0.03736   0.69591   0.31900   1.000
    H25     H    0.12354   0.88774   0.36366   1.000
    H26     H    0.40714   0.90555   0.45943   1.000
    H27     H    0.31225   0.71281   0.40635   1.000
    H28     H    0.47612   0.22063   0.28004   1.000
    H29     H    0.60006   0.14592   0.25844   1.000
    H30     H    0.79733   0.26383   0.28143   1.000
    H31     H    0.83953   0.75083   0.29262   1.000
    H32     H    0.83247   0.84559   0.42253   1.000
    H33     H    0.77379   0.75214   0.50637   1.000
    H34     H    0.84392   0.36708   0.95845   1.000
    H35     H    0.75324   0.17669   0.91125   1.000
    H36     H    0.75087   0.20497   0.13733   1.000
    H37     H    0.85018   0.39489   0.17634   1.000
    H38     H    0.65951   0.69648   0.81958   1.000
    H39     H    0.76521   0.88839   0.86421   1.000
    H40     H    0.49787   0.90473   0.95941   1.000
    H41     H    0.40003   0.71195   0.90633   1.000
    H42     H    0.25717   0.77919   0.21932   1.000
    H43     H    0.45611   0.85358   0.24075   1.000
    H44     H    0.53460   0.73547   0.21782   1.000
    H45     H    0.08728   0.24907   0.20719   1.000
    H46     H    0.98479   0.15428   0.07760   1.000
    H47     H    0.01952   0.24763   0.99380   1.000
    H48     H    0.47800   0.63222   0.54091   1.000
    H49     H    0.57768   0.82261   0.58843   1.000
    H50     H    0.54520   0.79522   0.36270   1.000
    H51     H    0.45465   0.60526   0.32327   1.000
    H52     H    0.96265   0.30409   0.68084   1.000
    H53     H    0.87646   0.11226   0.63617   1.000
    H54     H    0.59286   0.09448   0.54043   1.000
    H55     H    0.68776   0.28722   0.59351   1.000
    C56     C    0.39801   0.62505   0.68928   1.000
    C57     C    0.43793   0.73044   0.71159   1.000
    C58     C    0.36876   0.77179   0.72330   1.000
    C59     C    0.25933   0.70678   0.71107   1.000
    C60     C    0.21773   0.60069   0.68730   1.000
    C61     C    0.28724   0.55803   0.67619   1.000
    C62     C    0.21718   0.39229   0.69569   1.000
    C63     C    0.18588   0.28788   0.66947   1.000
    C64     C    0.18974   0.23525   0.59700   1.000
    C65     C    0.22230   0.28683   0.55031   1.000
    C66     C    0.25079   0.39070   0.57458   1.000
    C67     C    0.24935   0.44533   0.64847   1.000
    C68     C    0.17691   0.67131   0.00344   1.000
    C69     C    0.22736   0.77729   0.02959   1.000
    C70     C    0.25529   0.82346   0.97883   1.000
    C71     C    0.22873   0.76155   0.90337   1.000
    C72     C    0.17498   0.65611   0.88148   1.000
    C73     C    0.37311   0.25432   0.14972   1.000
    C74     C    0.31493   0.14857   0.12450   1.000
    C75     C    0.35991   0.08957   0.08313   1.000
    C76     C    0.46399   0.13902   0.07069   1.000
    C77     C    0.51820   0.24526   0.09985   1.000
    C78     C    0.77232   0.37524   0.81095   1.000
    C79     C    0.70621   0.26988   0.78874   1.000
    C80     C    0.59552   0.22870   0.77702   1.000
    C81     C    0.55157   0.29382   0.78930   1.000
    C82     C    0.61669   0.39988   0.81299   1.000
    C83     C    0.72904   0.44236   0.82400   1.000
    C84     C    0.82564   0.60792   0.80433   1.000
    C85     C    0.89929   0.71230   0.83038   1.000
    C86     C    0.95618   0.76492   0.90261   1.000
    C87     C    0.93712   0.71338   0.94935   1.000
    C88     C    0.86114   0.60958   0.92527   1.000
    C89     C    0.80454   0.55498   0.85159   1.000
    C90     C    0.50480   0.32922   0.49672   1.000
    C91     C    0.44928   0.22322   0.47039   1.000
    C92     C    0.43167   0.17679   0.52096   1.000
    C93     C    0.46742   0.23849   0.59643   1.000
    C94     C    0.51910   0.34396   0.61853   1.000
    C95     C    0.11915   0.74541   0.34960   1.000
    C96     C    0.16671   0.85113   0.37488   1.000
    C97     C    0.27064   0.91055   0.41643   1.000
    C98     C    0.32526   0.86152   0.42901   1.000
    C99     C    0.27325   0.75528   0.39980   1.000
    C100    C    0.60202   0.37496   0.31054   1.000
    C101    C    0.56209   0.26956   0.28824   1.000
    C102    C    0.63126   0.22821   0.27643   1.000
    C103    C    0.74068   0.29321   0.28870   1.000
    C104    C    0.78229   0.39930   0.31251   1.000
    C105    C    0.71278   0.44197   0.32360   1.000
    C106    C    0.78283   0.60772   0.30414   1.000
    C107    C    0.81413   0.71213   0.33036   1.000
    C108    C    0.81027   0.76475   0.40277   1.000
    C109    C    0.77773   0.71316   0.44952   1.000
    C110    C    0.74925   0.60930   0.42524   1.000
    C111    C    0.75068   0.55467   0.35136   1.000
    C112    C    0.82311   0.32871   0.99639   1.000
    C113    C    0.77267   0.22273   0.97023   1.000
    C114    C    0.74474   0.17656   0.02100   1.000
    C115    C    0.77130   0.23847   0.09646   1.000
    C116    C    0.82504   0.34391   0.11835   1.000
    C117    C    0.62691   0.74570   0.85012   1.000
    C118    C    0.68508   0.85144   0.87532   1.000
    C119    C    0.64011   0.91045   0.91600   1.000
    C120    C    0.53604   0.86100   0.92914   1.000
    C121    C    0.48183   0.75476   0.89999   1.000
    C122    C    0.22770   0.62477   0.18887   1.000
    C123    C    0.29382   0.73014   0.21110   1.000
    C124    C    0.40450   0.77132   0.22282   1.000
    C125    C    0.44845   0.70620   0.21053   1.000
    C126    C    0.38333   0.60013   0.18682   1.000
    C127    C    0.27099   0.55765   0.17577   1.000
    C128    C    0.17437   0.39210   0.19549   1.000
    C129    C    0.10071   0.28772   0.16945   1.000
    C130    C    0.04382   0.23509   0.09722   1.000
    C131    C    0.06289   0.28663   0.05047   1.000
    C132    C    0.13888   0.39043   0.07455   1.000
    C133    C    0.19547   0.44503   0.14823   1.000
    C134    C    0.49518   0.67076   0.50310   1.000
    C135    C    0.55069   0.77677   0.52944   1.000
    C136    C    0.56831   0.82321   0.47889   1.000
    C137    C    0.53256   0.76152   0.40341   1.000
    C138    C    0.48089   0.65605   0.38130   1.000
    C139    C    0.88085   0.25459   0.65010   1.000
    C140    C    0.83329   0.14888   0.62496   1.000
    C141    C    0.72935   0.08946   0.58342   1.000
    C142    C    0.67474   0.13850   0.57085   1.000
    C143    C    0.72676   0.24474   0.59999   1.000
    N144    N    0.15173   0.61159   0.93055   1.000
    N145    N    0.31413   0.93093   0.99940   1.000
    N146    N    0.29676   0.98209   0.05900   1.000
    N147    N    0.47359   0.30195   0.13803   1.000
    N148    N    0.53994   0.38873   0.56962   1.000
    N149    N    0.38328   0.06935   0.50020   1.000
    N150    N    0.31483   0.01798   0.44030   1.000
    N151    N    0.17198   0.69820   0.36154   1.000
    N152    N    0.84828   0.38843   0.06920   1.000
    N153    N    0.68591   0.06909   0.00000   1.000
    N154    N    0.70325   0.01793   0.94052   1.000
    N155    N    0.52644   0.69808   0.86181   1.000
    N156    N    0.46006   0.61127   0.43020   1.000
    N157    N    0.61668   0.93066   0.49965   1.000
    N158    N    0.68516   0.98203   0.55951   1.000
    N159    N    0.82803   0.30182   0.63831   1.000
loop_
    _geom_bond_atom_site_label_1
    _geom_bond_atom_site_label_2
    _geom_bond_distance
    _geom_bond_site_symmetry_2
    _ccdc_geom_bond_type
    N153   C114      1.41920      .   S
    N153   N154      1.26720  1_554   S
    C68    C69       1.38811      .   S
    C68    H6        1.08722      .   S
    C68    N144      1.35224  1_554   S
    H19    C87       1.08846  1_554   S
    C114   C115      1.39983      .   S
    C114   C113      1.39977  1_554   S
    C69    H7        1.08789      .   S
    C69    C70       1.39955  1_554   S
    H12    C76       1.08852      .   S
    C131   C132      1.40306      .   S
    C131   C130      1.39050      .   S
    C131   H47       1.08842  1_554   S
    N146   C75       1.41681  1_565   S
    N146   N145      1.26905  1_554   S
    N152   C116      1.35184      .   S
    N152   C112      1.35094  1_554   S
    C76    C75       1.40275      .   S
    C76    C77       1.38890      .   S
    C132   C133      1.41430      .   S
    H46    C130      1.09071  1_655   S
    C75    C74       1.40014      .   S
    H13    C77       1.08902      .   S
    C115   C116      1.38767      .   S
    C115   H36       1.08793      .   S
    C130   C129      1.39280      .   S
    C77    N147      1.35009      .   S
    C116   H37       1.08589      .   S
    C74    H11       1.08898      .   S
    C74    C73       1.38747      .   S
    N147   C73       1.35177      .   S
    C133   C127      1.49938      .   S
    C133   C128      1.41375      .   S
    C73    H10       1.08969      .   S
    C129   C128      1.39952      .   S
    C129   H45       1.09015      .   S
    C127   C126      1.41289      .   S
    C127   C122      1.41144      .   S
    C126   C125      1.40253      .   S
    C122   C123      1.39851      .   S
    C125   H44       1.08941      .   S
    C125   C124      1.39187      .   S
    C123   H42       1.09063      .   S
    C123   C124      1.39288      .   S
    C124   H43       1.09068      .   S
    H29    C102      1.09064      .   S
    C102   C101      1.39279      .   S
    C102   C103      1.39195      .   S
    H28    C101      1.09062      .   S
    H30    C103      1.08939      .   S
    C101   C100      1.39855      .   S
    C103   C104      1.40243      .   S
    H31    C107      1.09022      .   S
    C106   C107      1.39955      .   S
    C106   C111      1.41401      .   S
    C100   C105      1.41147      .   S
    C104   C105      1.41283      .   S
    H24    C95       1.08922      .   S
    H51    C138      1.08591      .   S
    C105   C111      1.49960      .   S
    C107   C108      1.39282      .   S
    C95    N151      1.35224      .   S
    C95    C96       1.38736      .   S
    C111   C110      1.41426      .   S
    N151   C99       1.34965      .   S
    H50    C137      1.08796      .   S
    H25    C96       1.08895      .   S
    C96    C97       1.40015      .   S
    C138   C137      1.38767      .   S
    C138   N156      1.35040      .   S
    C99    H27       1.08948      .   S
    C99    C98       1.38892      .   S
    C108   H32       1.09070      .   S
    C108   C109      1.39037      .   S
    C137   C136      1.40000      .   S
    H21    C91       1.08772      .   S
    C97    C98       1.40275      .   S
    C97    N150      1.41744  1_565   S
    C110   C109      1.40303      .   S
    C98    H26       1.08858      .   S
    N156   C134      1.35238      .   S
    N150   N149      1.27359      .   S
    C109   H33       1.08845      .   S
    H20    C90       1.08703      .   S
    C91    C90       1.38811      .   S
    C91    C92       1.40007      .   S
    C136   N157      1.42020      .   S
    C136   C135      1.39988      .   S
    H5     C65       1.08851      .   S
    C90    N148      1.35241      .   S
    N157   N158      1.27319      .   S
    N149   C92       1.42013      .   S
    C134   C135      1.38812      .   S
    C134   H48       1.08713      .   S
    C92    C93       1.39987      .   S
    C135   H49       1.08786      .   S
    H54    C142      1.08862      .   S
    C65    C66       1.40305      .   S
    C65    C64       1.38929      .   S
    N158   C141      1.41742  1_565   S
    N148   C94       1.35040      .   S
    C142   C141      1.40272      .   S
    C142   C143      1.38896      .   S
    C66    C67       1.41449      .   S
    H4     C64       1.09077      .   S
    C141   C140      1.40015      .   S
    H55    C143      1.08905      .   S
    C93    C94       1.38766      .   S
    C93    H22       1.08803      .   S
    C64    C63       1.39383      .   S
    C143   N159      1.35008      .   S
    C94    H23       1.08502      .   S
    C140   H53       1.08893      .   S
    C140   C139      1.38758      .   S
    N159   C139      1.35123      .   S
    C67    C61       1.49962      .   S
    C67    C62       1.41394      .   S
    C139   H52       1.09010      .   S
    C63    C62       1.39955      .   S
    C63    H3        1.09019      .   S
    C61    C60       1.41282      .   S
    C61    C56       1.41144      .   S
    C60    C59       1.40251      .   S
    C56    C57       1.39851      .   S
    C59    H2        1.08938      .   S
    C59    C58       1.39202      .   S
    C57    H0        1.09063      .   S
    C57    C58       1.39281      .   S
    C58    H1        1.09064      .   S
    H15    C80       1.09068      .   S
    C80    C79       1.39288      .   S
    C80    C81       1.39187      .   S
    H14    C79       1.09055      .   S
    H16    C81       1.08940      .   S
    C79    C78       1.39852      .   S
    C81    C82       1.40256      .   S
    H17    C85       1.09019      .   S
    C84    C85       1.39952      .   S
    C84    C89       1.41383      .   S
    C78    C83       1.41153      .   S
    C82    C83       1.41290      .   S
    H38    C117      1.08971      .   S
    H9     C72       1.08590      .   S
    C83    C89       1.49932      .   S
    C85    C86       1.39282      .   S
    C117   N155      1.35169      .   S
    C117   C118      1.38747      .   S
    C89    C88       1.41432      .   S
    N155   C121      1.35011      .   S
    H8     C71       1.08807      .   S
    H39    C118      1.08900      .   S
    C118   C119      1.39552      .   S
    C72    C71       1.38766      .   S
    C72    N144      1.35039      .   S
    C121   H41       1.08908      .   S
    C121   C120      1.38889      .   S
    C86    H18       1.05950  1_655   S
    C86    C87       1.39041      .   S
    C71    C70       1.39984      .   S
    H35    C113      1.08772      .   S
    C119   C120      1.40785      .   S
    C119   N154      1.41610  1_565   S
    C88    C87       1.40307      .   S
    C120   H40       1.08852      .   S
    H34    C112      1.08724      .   S
    C113   C112      1.38809      .   S
    C70    N145      1.42038      .   S
