# CIF file generated by openbabel 2.4.90, see http://openbabel.sf.net
data_I
_chemical_name_common ''
_cell_length_a 14.273
_cell_length_b 15.94
_cell_length_c 19.73
_cell_angle_alpha 110.743
_cell_angle_beta 89.833
_cell_angle_gamma 116.784
_space_group_name_H-M_alt 'P 1'
_space_group_name_Hall 'P 1'
loop_
    _symmetry_equiv_pos_as_xyz
    x,y,z
loop_
    _atom_site_label
    _atom_site_type_symbol
    _atom_site_fract_x
    _atom_site_fract_y
    _atom_site_fract_z
    _atom_site_occupancy
    C0      C    0.47540   0.58409   0.67593   1.000
    C1      C    0.09893   0.53521   0.67343   1.000
    C2      C    0.21338   0.44249   0.77519   1.000
    C3      C    0.28093   0.44014   0.51940   1.000
    C4      C    0.89085   0.41609   0.82410   1.000
    C5      C    0.56382   0.46550   0.82682   1.000
    C6      C    0.77138   0.55754   0.72496   1.000
    O7      O    0.91983   0.61042   0.03766   1.000
    O8      O    0.46311   0.39228   0.36853   1.000
    O9      O    0.52179   0.47138   0.29159   1.000
    O10     O    0.70284   0.48079   0.17941   1.000
    C11     C    0.84182   0.56016   0.98044   1.000
    C12     C    0.52463   0.41592   0.32389   1.000
    C13     C    0.90109   0.46478   0.32638   1.000
    C14     C    0.78665   0.55752   0.22465   1.000
    C15     C    0.71913   0.55984   0.48040   1.000
    C16     C    0.10917   0.58392   0.17568   1.000
    C17     C    0.43619   0.53451   0.17300   1.000
    C18     C    0.22863   0.44248   0.27486   1.000
    C19     C    0.15820   0.43985   0.01938   1.000
    O20     O    0.53688   0.60769   0.63126   1.000
    O21     O    0.47828   0.52867   0.70826   1.000
    O22     O    0.29719   0.51924   0.82041   1.000
    O23     O    0.12353   0.40302   0.79440   1.000
    O24     O    0.04263   0.58172   0.69618   1.000
    O25     O    0.05648   0.43954   0.64405   1.000
    O26     O    0.28122   0.52175   0.52984   1.000
    O27     O    0.30671   0.38905   0.46130   1.000
    O28     O    0.92835   0.39280   0.86896   1.000
    O29     O    0.94964   0.47119   0.79150   1.000
    O30     O    0.77832   0.48086   0.67963   1.000
    O31     O    0.72092   0.59674   0.70596   1.000
    O32     O    0.46086   0.41893   0.80402   1.000
    O33     O    0.61743   0.56113   0.85622   1.000
    O34     O    0.75948   0.47934   0.97078   1.000
    O35     O    0.87651   0.59698   0.20546   1.000
    O36     O    0.95739   0.41827   0.30360   1.000
    O37     O    0.94354   0.56045   0.35576   1.000
    O38     O    0.71889   0.47825   0.46990   1.000
    O39     O    0.69329   0.61090   0.53850   1.000
    O40     O    0.07166   0.60719   0.13085   1.000
    O41     O    0.05040   0.52885   0.20827   1.000
    O42     O    0.22172   0.51918   0.32019   1.000
    O43     O    0.27906   0.40326   0.29387   1.000
    O44     O    0.53916   0.58107   0.19570   1.000
    O45     O    0.38257   0.43888   0.14362   1.000
    O46     O    0.24055   0.52065   0.02902   1.000
    O47     O    0.08014   0.38961   0.96219   1.000
loop_
    _geom_bond_atom_site_label_1
    _geom_bond_atom_site_label_2
    _geom_bond_distance
    _geom_bond_site_symmetry_2
    _ccdc_geom_bond_type
    C19    O46       1.24094      .   S
    C19    O47       1.31105  1_554   S
    O7     C11       1.31108  1_554   S
    O40    C16       1.27308      .   S
    O45    C17       1.25324      .   S
    C17    O44       1.30260      .   S
    C16    O41       1.27304      .   S
    O10    C14       1.27982      .   S
    O35    C14       1.27389      .   S
    C18    O43       1.27394      .   S
    C18    O42       1.27989      .   S
    O9     C12       1.27309      .   S
    O36    C13       1.30246      .   S
    C12    O8        1.27330      .   S
    C13    O37       1.25373      .   S
    O27    C3        1.31112      .   S
    O38    C15       1.24073      .   S
    C15    O39       1.31131      .   S
    C3     O26       1.24098      .   S
    O20    C0        1.27325      .   S
    O25    C1        1.25372      .   S
    C1     O24       1.30239      .   S
    C0     O21       1.27315      .   S
    O30    C6        1.27989      .   S
    O31    C6        1.27387      .   S
    C2     O23       1.27391      .   S
    C2     O22       1.27975      .   S
    O29    C4        1.27356      .   S
    O32    C5        1.30280      .   S
    C4     O28       1.27371      .   S
    C5     O33       1.25324      .   S
    O34    C11       1.24094      .   S
