# CIF file generated by openbabel 2.4.90, see http://openbabel.sf.net
data_I
_chemical_name_common ''
_cell_length_a 14.273
_cell_length_b 15.94
_cell_length_c 19.73
_cell_angle_alpha 110.743
_cell_angle_beta 89.833
_cell_angle_gamma 116.784
_space_group_name_H-M_alt 'P 1'
_space_group_name_Hall 'P 1'
loop_
    _symmetry_equiv_pos_as_xyz
    x,y,z
loop_
    _atom_site_label
    _atom_site_type_symbol
    _atom_site_fract_x
    _atom_site_fract_y
    _atom_site_fract_z
    _atom_site_occupancy
    Zr0     Zr   0.09066   0.45625   0.89493   1.000
    Zr1     Zr   0.55495   0.46029   0.19001   1.000
    Zr2     Zr   0.63539   0.54410   0.60554   1.000
    Zr3     Zr   0.09454   0.53976   0.30968   1.000
    Zr4     Zr   0.90936   0.54377   0.10490   1.000
    Zr5     Zr   0.44508   0.53975   0.80984   1.000
    Zr6     Zr   0.36461   0.45587   0.39426   1.000
    Zr7     Zr   0.90549   0.46028   0.69017   1.000
    N8      N    0.64717   0.95653   0.53270   1.000
    O9      O    0.52975   0.74505   0.47246   1.000
    O10     O    0.75697   0.16879   0.59847   1.000
    N11     N    0.30950   0.95673   0.03261   1.000
    O12     O    0.21535   0.74532   0.97267   1.000
    O13     O    0.41189   0.16892   0.09831   1.000
    N14     N    0.35282   0.04348   0.46713   1.000
    O15     O    0.47024   0.25495   0.52735   1.000
    O16     O    0.24304   0.83123   0.40137   1.000
    N17     N    0.65607   0.29306   0.29110   1.000
    N18     N    0.79230   0.70114   0.38721   1.000
    O19     O    0.74310   0.54842   0.35075   1.000
    N20     N    0.69052   0.04329   0.96716   1.000
    O21     O    0.78467   0.25470   0.02710   1.000
    O22     O    0.58814   0.83110   0.90149   1.000
    N23     N    0.20772   0.29886   0.61261   1.000
    N24     N    0.34395   0.70693   0.70869   1.000
    O25     O    0.29098   0.55360   0.67308   1.000
    N26     N    0.08975   0.29867   0.11267   1.000
    N27     N    0.36407   0.70649   0.20820   1.000
    O28     O    0.26278   0.55325   0.17277   1.000
    N29     N    0.63595   0.29352   0.79162   1.000
    N30     N    0.90857   0.70135   0.88716   1.000
    O31     O    0.80497   0.54872   0.85093   1.000
    C32     C    0.75687   0.54505   0.70352   1.000
    O33     O    0.79939   0.50781   0.69421   1.000
    O34     O    0.80521   0.59354   0.76471   1.000
    O35     O    0.71751   0.55773   0.67963   1.000
    C36     C    0.06601   0.51882   0.67122   1.000
    O37     O    0.15858   0.57813   0.68287   1.000
    O38     O    0.02004   0.51991   0.68220   1.000
    C39     C    0.15963   0.45004   0.00353   1.000
    O40     O    0.13939   0.40347   0.04167   1.000
    O41     O    0.12252   0.43648   0.96605   1.000
    C42     C    0.71044   0.54966   0.49627   1.000
    O43     O    0.73684   0.59626   0.45814   1.000
    O44     O    0.68739   0.56358   0.53414   1.000
    C45     C    0.21137   0.45492   0.79667   1.000
    O46     O    0.21143   0.40652   0.73535   1.000
    O47     O    0.15923   0.44228   0.82067   1.000
    O48     O    0.29125   0.49220   0.80590   1.000
    C49     C    0.49685   0.57348   0.67182   1.000
    O50     O    0.44359   0.61462   0.68373   1.000
    O51     O    0.47927   0.55385   0.71543   1.000
    O52     O    0.54149   0.57469   0.64511   1.000
    C53     C    0.54737   0.48185   0.82902   1.000
    O54     O    0.50017   0.48060   0.81798   1.000
    O55     O    0.58024   0.42248   0.81739   1.000
    C56     C    0.92295   0.42669   0.82819   1.000
    O57     O    0.82836   0.38564   0.81638   1.000
    O58     O    0.92525   0.44621   0.78451   1.000
    O59     O    0.96623   0.42561   0.85507   1.000
    C60     C    0.07707   0.57332   0.17160   1.000
    O61     O    0.17166   0.61437   0.18342   1.000
    O62     O    0.07477   0.55381   0.21529   1.000
    O63     O    0.03379   0.57440   0.14474   1.000
    C64     C    0.24314   0.45497   0.29631   1.000
    O65     O    0.28249   0.44227   0.32019   1.000
    O66     O    0.19438   0.40648   0.23511   1.000
    O67     O    0.20063   0.49222   0.30562   1.000
    C68     C    0.93401   0.48117   0.32858   1.000
    O69     O    0.97999   0.48009   0.31761   1.000
    O70     O    0.84144   0.42186   0.31693   1.000
    C71     C    0.84037   0.54997   0.99629   1.000
    O72     O    0.86020   0.59654   0.95815   1.000
    O73     O    0.87748   0.56353   0.03379   1.000
    C74     C    0.45264   0.51815   0.17077   1.000
    O75     O    0.49985   0.51941   0.18181   1.000
    O76     O    0.41978   0.57753   0.18241   1.000
    C77     C    0.50318   0.42653   0.32800   1.000
    O78     O    0.52077   0.44618   0.28440   1.000
    O79     O    0.45852   0.42530   0.35470   1.000
    O80     O    0.55644   0.38539   0.31608   1.000
    C81     C    0.78867   0.54509   0.20317   1.000
    O82     O    0.84080   0.55773   0.17918   1.000
    O83     O    0.70878   0.50781   0.19394   1.000
    O84     O    0.78859   0.59349   0.26449   1.000
    C85     C    0.28962   0.45032   0.50351   1.000
    O86     O    0.26321   0.40373   0.54166   1.000
    O87     O    0.31264   0.43639   0.46565   1.000
loop_
    _geom_bond_atom_site_label_1
    _geom_bond_atom_site_label_2
    _geom_bond_distance
    _geom_bond_site_symmetry_2
    _ccdc_geom_bond_type
    N8     O9        2.76888      .   S
    Zr6    O9        3.79141      .   S
    N8     O10       2.77679  1_565   S
    Zr7    O10       3.81395      .   S
    N11    O12       2.76857  1_554   S
    Zr0    O12       3.79087      .   S
    N11    O13       2.77614  1_565   S
    Zr1    O13       3.81250      .   S
    N14    O15       2.76874      .   S
    Zr2    O15       3.79117      .   S
    N14    O16       2.77666  1_545   S
    Zr3    O16       3.81373      .   S
    N18    O19       2.03932      .   S
    N17    O19       3.39912      .   S
    N20    O21       2.76856  1_556   S
    Zr4    O21       3.79085      .   S
    N20    O22       2.77605  1_545   S
    Zr5    O22       3.81233      .   S
    N24    O25       2.03966      .   S
    N23    O25       3.39880      .   S
    N27    O28       2.03941      .   S
    N26    O28       3.39841      .   S
    N30    O31       2.03678      .   S
    N29    O31       3.39664      .   S
    C32    O33       1.00056      .   S
    Zr7    O33       1.96575      .   S
    C32    O34       1.18078      .   S
    N30    O34       2.40025      .   S
    C32    O35       0.86601      .   S
    Zr2    O35       1.76454      .   S
    C36    O37       1.18921      .   S
    N24    O37       2.41793      .   S
    C36    O38       0.69616      .   S
    Zr7    O38       1.51830  1_655   S
    C39    O40       1.18402      .   S
    N26    O40       2.41656      .   S
    C39    O41       0.81256  1_554   S
    Zr0    O41       1.64945      .   S
    C42    O43       1.18379      .   S
    N18    O43       2.41621      .   S
    C42    O44       0.81413      .   S
    Zr2    O44       1.65156      .   S
    C45    O46       1.18253      .   S
    N23    O46       2.40559      .   S
    C45    O47       0.86542      .   S
    Zr0    O47       1.76393      .   S
    C45    O48       1.00012      .   S
    Zr5    O48       1.96487      .   S
    C49    O50       1.18411      .   S
    N24    O50       2.40815      .   S
    C49    O51       1.01008      .   S
    Zr5    O51       1.98755      .   S
    C49    O52       0.82354      .   S
    Zr2    O52       1.71941      .   S
    C53    O54       0.69810      .   S
    Zr5    O54       1.51956      .   S
    C53    O55       1.18916      .   S
    N29    O55       2.41802      .   S
    C56    O57       1.18441      .   S
    N29    O57       2.40874      .   S
    C56    O58       1.01045      .   S
    Zr7    O58       1.98750      .   S
    C56    O59       0.82531      .   S
    Zr0    O59       1.72209  1_455   S
    C60    O61       1.18440      .   S
    N27    O61       2.40874      .   S
    C60    O62       1.01056      .   S
    Zr3    O62       1.98843      .   S
    C60    O63       0.82511      .   S
    Zr4    O63       1.72201  1_655   S
    C64    O65       0.86606      .   S
    Zr6    O65       1.76448      .   S
    C64    O66       1.18257      .   S
    N26    O66       2.40565      .   S
    C64    O67       1.00051      .   S
    Zr3    O67       1.96567      .   S
    C68    O69       0.69608      .   S
    Zr3    O69       1.51813  1_455   S
    C68    O70       1.18921      .   S
    N17    O70       2.41791      .   S
    C71    O72       1.18432      .   S
    N30    O72       2.41706      .   S
    C71    O73       0.81260  1_556   S
    Zr4    O73       1.64949      .   S
    C74    O75       0.69814      .   S
    Zr1    O75       1.51981      .   S
    C74    O76       1.18915      .   S
    N27    O76       2.41803      .   S
    C77    O78       1.00994      .   S
    Zr1    O78       1.98729      .   S
    C77    O79       0.82353      .   S
    Zr6    O79       1.71938      .   S
    C77    O80       1.18412      .   S
    N17    O80       2.40816      .   S
    C81    O82       0.86536      .   S
    Zr4    O82       1.76396      .   S
    C81    O83       1.00012      .   S
    Zr1    O83       1.96487      .   S
    C81    O84       1.18246      .   S
    N18    O84       2.40543      .   S
    C85    O86       1.18402      .   S
    N23    O86       2.41648      .   S
    C85    O87       0.81378      .   S
    Zr6    O87       1.65123      .   S
