# CIF file generated by openbabel 2.4.90, see http://openbabel.sf.net
data_I
_chemical_name_common ''
_cell_length_a 23.679
_cell_length_b 14.304
_cell_length_c 17.532
_cell_angle_alpha 89.972
_cell_angle_beta 90.004
_cell_angle_gamma 90.006
_space_group_name_H-M_alt 'P 1'
_space_group_name_Hall 'P 1'
loop_
    _symmetry_equiv_pos_as_xyz
    x,y,z
loop_
    _atom_site_label
    _atom_site_type_symbol
    _atom_site_fract_x
    _atom_site_fract_y
    _atom_site_fract_z
    _atom_site_occupancy
    Zr0     Zr   0.00854   0.63826   0.01526   1.000
    Zr1     Zr   0.50858   0.63821   0.01531   1.000
    Zr2     Zr   0.00854   0.36175   0.98471   1.000
    Zr3     Zr   0.50859   0.36176   0.98468   1.000
    Zr4     Zr   0.49102   0.86219   0.51571   1.000
    Zr5     Zr   0.99108   0.86228   0.51561   1.000
    Zr6     Zr   0.49096   0.13787   0.48434   1.000
    Zr7     Zr   0.99103   0.13776   0.48437   1.000
    N8      N    0.25850   0.63075   0.01910   1.000
    O9      O    0.15859   0.63235   0.01737   1.000
    O10     O    0.35843   0.63240   0.01816   1.000
    N11     N    0.75853   0.36899   0.98136   1.000
    O12     O    0.85844   0.36735   0.98219   1.000
    O13     O    0.65863   0.36744   0.98296   1.000
    N14     N    0.00803   0.54074   0.69877   1.000
    O15     O    0.00741   0.59358   0.82407   1.000
    O16     O    0.00859   0.48638   0.82297   1.000
    N17     N    0.74100   0.13064   0.48097   1.000
    O18     O    0.64107   0.13220   0.48179   1.000
    O19     O    0.84093   0.13211   0.48258   1.000
    N20     N    0.74102   0.86936   0.51906   1.000
    O21     O    0.64110   0.86777   0.51825   1.000
    O22     O    0.84095   0.86791   0.51742   1.000
    N23     N    0.49100   0.04085   0.80102   1.000
    O24     O    0.49170   0.09392   0.67572   1.000
    O25     O    0.49053   0.98697   0.67695   1.000
    N26     N    0.75852   0.63101   0.01864   1.000
    O27     O    0.65862   0.63255   0.01704   1.000
    O28     O    0.85843   0.63264   0.01780   1.000
    N29     N    0.25851   0.36926   0.98087   1.000
    O30     O    0.15860   0.36766   0.98259   1.000
    O31     O    0.35844   0.36759   0.98181   1.000
    N32     N    0.00804   0.45928   0.30118   1.000
    O33     O    0.00860   0.51363   0.17699   1.000
    O34     O    0.00742   0.40643   0.17589   1.000
    N35     N    0.50859   0.45943   0.30119   1.000
    O36     O    0.50916   0.51369   0.17701   1.000
    O37     O    0.50741   0.40656   0.17586   1.000
    N38     N    0.50861   0.54070   0.69886   1.000
    O39     O    0.50918   0.48637   0.82301   1.000
    O40     O    0.50742   0.59350   0.82414   1.000
    N41     N    0.49132   0.95917   0.19898   1.000
    O42     O    0.49123   0.01307   0.32307   1.000
    O43     O    0.49185   0.90610   0.32427   1.000
    N44     N    0.24105   0.86936   0.51925   1.000
    O45     O    0.14115   0.86784   0.51837   1.000
    O46     O    0.34096   0.86784   0.51759   1.000
    N47     N    0.24094   0.13057   0.48070   1.000
    O48     O    0.14106   0.13214   0.48160   1.000
    O49     O    0.34086   0.13206   0.48237   1.000
    N50     N    0.99144   0.95917   0.19893   1.000
    O51     O    0.99219   0.90614   0.32422   1.000
    O52     O    0.99101   0.01303   0.32304   1.000
    N53     N    0.99143   0.04083   0.80104   1.000
    O54     O    0.99218   0.09387   0.67576   1.000
    O55     O    0.99102   0.98698   0.67693   1.000
    O56     O    0.99997   0.66879   0.62250   1.000
    O57     O    0.99905   0.83151   0.12230   1.000
    O58     O    0.99904   0.16849   0.87766   1.000
    O59     O    0.50086   0.33140   0.37748   1.000
    O60     O    0.99995   0.33122   0.37746   1.000
    O61     O    0.49884   0.16848   0.87763   1.000
    O62     O    0.50085   0.66880   0.62265   1.000
    O63     O    0.49900   0.83152   0.12236   1.000
loop_
    _geom_bond_atom_site_label_1
    _geom_bond_atom_site_label_2
    _geom_bond_distance
    _geom_bond_site_symmetry_2
    _ccdc_geom_bond_type
    N8     O9        2.36596      .   S
    Zr0    O9        3.55428      .   S
    N8     O10       2.36651      .   S
    Zr1    O10       3.55666      .   S
    N11    O12       2.36594      .   S
    Zr2    O12       3.55553  1_455   S
    N11    O13       2.36571      .   S
    Zr3    O13       3.55383      .   S
    N14    O15       2.32355      .   S
    Zr0    O15       3.41267  1_554   S
    N14    O16       2.31170      .   S
    Zr2    O16       3.34873      .   S
    N17    O18       2.36624      .   S
    Zr6    O18       3.55583      .   S
    N17    O19       2.36643      .   S
    Zr7    O19       3.55528      .   S
    N20    O21       2.36600      .   S
    Zr4    O21       3.55505      .   S
    N20    O22       2.36665      .   S
    Zr5    O22       3.55589      .   S
    N23    O24       2.32392      .   S
    Zr6    O24       3.41340      .   S
    N23    O25       2.30807  1_545   S
    Zr4    O25       3.34390      .   S
    N26    O27       2.36571      .   S
    Zr1    O27       3.55392      .   S
    N26    O28       2.36601      .   S
    Zr0    O28       3.55561  1_455   S
    N29    O30       2.36605      .   S
    Zr2    O30       3.55438      .   S
    N29    O31       2.36651      .   S
    Zr3    O31       3.55674      .   S
    N32    O33       2.31155      .   S
    Zr0    O33       3.34860      .   S
    N32    O34       2.32338      .   S
    Zr2    O34       3.41257  1_556   S
    N35    O36       2.31089      .   S
    Zr1    O36       3.34741      .   S
    N35    O37       2.32422      .   S
    Zr3    O37       3.41295  1_556   S
    N38    O39       2.31092      .   S
    Zr3    O39       3.34748      .   S
    N38    O40       2.32319      .   S
    Zr1    O40       3.41245  1_554   S
    N41    O42       2.30859  1_565   S
    Zr6    O42       3.34450      .   S
    N41    O43       2.32380      .   S
    Zr4    O43       3.41434      .   S
    N44    O45       2.36573      .   S
    Zr5    O45       3.55480  1_655   S
    N44    O46       2.36595      .   S
    Zr4    O46       3.55429      .   S
    N47    O48       2.36529      .   S
    Zr7    O48       3.55391  1_655   S
    N47    O49       2.36619      .   S
    Zr6    O49       3.55532      .   S
    N50    O51       2.32360      .   S
    Zr5    O51       3.41342      .   S
    N50    O52       2.30871  1_565   S
    Zr7    O52       3.34484      .   S
    N53    O54       2.32353      .   S
    Zr7    O54       3.41345      .   S
    N53    O55       2.30859  1_545   S
    Zr5    O55       3.34459      .   S
    Zr5    O56       3.34821      .   S
    N14    O56       2.27545  1_455   S
    Zr0    O57       3.34946  1_455   S
    N50    O57       2.27461      .   S
    Zr2    O58       3.34954  1_455   S
    N53    O58       2.27452      .   S
    Zr6    O59       3.35002      .   S
    N35    O59       2.27469      .   S
    Zr7    O60       3.34827      .   S
    N32    O60       2.27547  1_455   S
    Zr3    O61       3.35016      .   S
    N23    O61       2.27471      .   S
    Zr4    O62       3.34913      .   S
    N38    O62       2.27461      .   S
    Zr1    O63       3.35020      .   S
    N41    O63       2.27463      .   S
