# CIF file generated by openbabel 2.4.90, see http://openbabel.sf.net
data_I
_chemical_name_common ''
_cell_length_a 23.679
_cell_length_b 14.304
_cell_length_c 17.532
_cell_angle_alpha 89.972
_cell_angle_beta 90.004
_cell_angle_gamma 90.006
_space_group_name_H-M_alt 'P 1'
_space_group_name_Hall 'P 1'
loop_
    _symmetry_equiv_pos_as_xyz
    x,y,z
loop_
    _atom_site_label
    _atom_site_type_symbol
    _atom_site_fract_x
    _atom_site_fract_y
    _atom_site_fract_z
    _atom_site_occupancy
    C0      C    0.00854   0.63826   0.01526   1.000
    C1      C    0.50858   0.63821   0.01531   1.000
    C2      C    0.00854   0.36175   0.98471   1.000
    C3      C    0.50859   0.36176   0.98468   1.000
    C4      C    0.49102   0.86219   0.51571   1.000
    C5      C    0.99108   0.86228   0.51561   1.000
    C6      C    0.49096   0.13787   0.48434   1.000
    C7      C    0.99103   0.13776   0.48437   1.000
    C8      C    0.11042   0.63500   0.13395   1.000
    C9      C    0.61043   0.63560   0.13346   1.000
    C10     C    0.11470   0.62602   0.89823   1.000
    C11     C    0.61475   0.62584   0.89776   1.000
    C12     C    0.22011   0.62518   0.89629   1.000
    C13     C    0.72016   0.62501   0.89584   1.000
    C14     C    0.21596   0.63552   0.14274   1.000
    C15     C    0.71598   0.63592   0.14228   1.000
    C16     C    0.49553   0.30296   0.24951   1.000
    C17     C    0.99605   0.30271   0.24947   1.000
    C18     C    0.40396   0.71586   0.92390   1.000
    C19     C    0.90392   0.71618   0.92336   1.000
    C20     C    0.29868   0.72110   0.92140   1.000
    C21     C    0.79862   0.72120   0.92087   1.000
    C22     C    0.29929   0.54345   0.12115   1.000
    C23     C    0.79934   0.54383   0.12077   1.000
    C24     C    0.40482   0.54657   0.11554   1.000
    C25     C    0.90491   0.54711   0.11512   1.000
    C26     C    0.01426   0.48513   0.44150   1.000
    C27     C    0.51453   0.48528   0.44151   1.000
    C28     C    0.01778   0.59896   0.21300   1.000
    C29     C    0.51796   0.59904   0.21297   1.000
    C30     C    0.01409   0.69819   0.33250   1.000
    C31     C    0.51389   0.69827   0.33259   1.000
    C32     C    0.01800   0.64831   0.41947   1.000
    C33     C    0.51781   0.64840   0.41940   1.000
    C34     C    0.11041   0.36505   0.86600   1.000
    C35     C    0.61044   0.36439   0.86653   1.000
    C36     C    0.11473   0.37398   0.10174   1.000
    C37     C    0.61477   0.37419   0.10223   1.000
    C38     C    0.22014   0.37481   0.10368   1.000
    C39     C    0.72018   0.37500   0.10417   1.000
    C40     C    0.21595   0.36453   0.85723   1.000
    C41     C    0.71599   0.36407   0.85773   1.000
    C42     C    0.49603   0.69716   0.75061   1.000
    C43     C    0.99602   0.69729   0.75050   1.000
    C44     C    0.40398   0.28413   0.07607   1.000
    C45     C    0.90394   0.28379   0.07662   1.000
    C46     C    0.29869   0.27890   0.07857   1.000
    C47     C    0.79864   0.27878   0.07914   1.000
    C48     C    0.29930   0.45654   0.87882   1.000
    C49     C    0.79934   0.45615   0.87924   1.000
    C50     C    0.40483   0.45341   0.88442   1.000
    C51     C    0.90490   0.45287   0.88487   1.000
    C52     C    0.01426   0.51489   0.55843   1.000
    C53     C    0.51409   0.51486   0.55845   1.000
    C54     C    0.01778   0.40106   0.78690   1.000
    C55     C    0.51792   0.40094   0.78694   1.000
    C56     C    0.01408   0.30183   0.66739   1.000
    C57     C    0.51397   0.30180   0.66730   1.000
    C58     C    0.01799   0.35171   0.58050   1.000
    C59     C    0.51819   0.35172   0.58047   1.000
    C60     C    0.38911   0.86505   0.63409   1.000
    C61     C    0.88909   0.86472   0.63387   1.000
    C62     C    0.38486   0.87402   0.39837   1.000
    C63     C    0.88480   0.87469   0.39818   1.000
    C64     C    0.27942   0.87486   0.39639   1.000
    C65     C    0.77939   0.87518   0.39621   1.000
    C66     C    0.28357   0.86447   0.64280   1.000
    C67     C    0.78355   0.86423   0.64263   1.000
    C68     C    0.00318   0.19800   0.75003   1.000
    C69     C    0.50293   0.19799   0.74995   1.000
    C70     C    0.09549   0.78381   0.42455   1.000
    C71     C    0.59549   0.78369   0.42430   1.000
    C72     C    0.20077   0.77859   0.42186   1.000
    C73     C    0.70077   0.77863   0.42163   1.000
    C74     C    0.20039   0.95705   0.62096   1.000
    C75     C    0.70029   0.95693   0.62082   1.000
    C76     C    0.09483   0.95421   0.61536   1.000
    C77     C    0.59474   0.95393   0.61525   1.000
    C78     C    0.48631   0.01372   0.94131   1.000
    C79     C    0.98649   0.01369   0.94133   1.000
    C80     C    0.48159   0.90188   0.71233   1.000
    C81     C    0.98227   0.90181   0.71233   1.000
    C82     C    0.48559   0.80170   0.83123   1.000
    C83     C    0.98620   0.80170   0.83130   1.000
    C84     C    0.48239   0.85089   0.91847   1.000
    C85     C    0.98284   0.85093   0.91849   1.000
    C86     C    0.38896   0.13539   0.36586   1.000
    C87     C    0.88905   0.13530   0.36610   1.000
    C88     C    0.38475   0.12511   0.60154   1.000
    C89     C    0.88481   0.12536   0.60182   1.000
    C90     C    0.27933   0.12472   0.60356   1.000
    C91     C    0.77940   0.12491   0.60381   1.000
    C92     C    0.28341   0.13580   0.35710   1.000
    C93     C    0.78351   0.13581   0.35739   1.000
    C94     C    0.00318   0.80201   0.24996   1.000
    C95     C    0.50334   0.80205   0.25001   1.000
    C96     C    0.09543   0.21621   0.57546   1.000
    C97     C    0.59546   0.21634   0.57564   1.000
    C98     C    0.20072   0.22137   0.57810   1.000
    C99     C    0.70073   0.22148   0.57837   1.000
    C100    C    0.20025   0.04298   0.37900   1.000
    C101    C    0.70030   0.04304   0.37926   1.000
    C102    C    0.09468   0.04585   0.38462   1.000
    C103    C    0.59471   0.04571   0.38490   1.000
    C104    C    0.48615   0.98624   0.05872   1.000
    C105    C    0.98650   0.98631   0.05866   1.000
    C106    C    0.48217   0.09818   0.28771   1.000
    C107    C    0.98226   0.09819   0.28765   1.000
    C108    C    0.48569   0.19833   0.16871   1.000
    C109    C    0.98621   0.19829   0.16867   1.000
    C110    C    0.48233   0.14905   0.08152   1.000
    C111    C    0.98285   0.14907   0.08149   1.000
    C112    C    0.13673   0.63200   0.08295   1.000
    C113    C    0.63676   0.63242   0.08248   1.000
    C114    C    0.13900   0.62758   0.95105   1.000
    C115    C    0.63904   0.62762   0.95058   1.000
    C116    C    0.19767   0.62800   0.95049   1.000
    C117    C    0.69771   0.62799   0.95003   1.000
    C118    C    0.19539   0.63203   0.08721   1.000
    C119    C    0.69541   0.63235   0.08675   1.000
    C120    C    0.22731   0.63040   0.01979   1.000
    C121    C    0.72734   0.63056   0.01933   1.000
    C122    C    0.00706   0.43089   0.13847   1.000
    C123    C    0.50696   0.43097   0.13846   1.000
    C124    C    0.28970   0.63137   0.02070   1.000
    C125    C    0.78972   0.63159   0.02032   1.000
    C126    C    0.50148   0.37290   0.27183   1.000
    C127    C    0.00000   0.37270   0.27181   1.000
    C128    C    0.37897   0.67800   0.96610   1.000
    C129    C    0.87894   0.67829   0.96558   1.000
    C130    C    0.32029   0.68004   0.96487   1.000
    C131    C    0.82026   0.68024   0.96436   1.000
    C132    C    0.49772   0.30379   0.40271   1.000
    C133    C    0.99768   0.30355   0.40263   1.000
    C134    C    0.32063   0.58327   0.07668   1.000
    C135    C    0.82066   0.58362   0.07627   1.000
    C136    C    0.37931   0.58405   0.07373   1.000
    C137    C    0.87935   0.58449   0.07331   1.000
    C138    C    0.50386   0.38635   0.35065   1.000
    C139    C    0.00000   0.38614   0.35060   1.000
    C140    C    0.01227   0.47577   0.37999   1.000
    C141    C    0.51236   0.47594   0.37996   1.000
    C142    C    0.01457   0.53962   0.25193   1.000
    C143    C    0.51460   0.53974   0.25190   1.000
    C144    C    0.01750   0.55400   0.33153   1.000
    C145    C    0.51752   0.55416   0.33149   1.000
    C146    C    0.00744   0.44915   0.22251   1.000
    C147    C    0.50727   0.44929   0.22250   1.000
    C148    C    0.13673   0.36804   0.91702   1.000
    C149    C    0.63676   0.36758   0.91751   1.000
    C150    C    0.13903   0.37244   0.04892   1.000
    C151    C    0.63906   0.37239   0.04941   1.000
    C152    C    0.19770   0.37201   0.04948   1.000
    C153    C    0.69773   0.37201   0.04990   1.000
    C154    C    0.19539   0.36801   0.91276   1.000
    C155    C    0.69542   0.36765   0.91325   1.000
    C156    C    0.22732   0.36962   0.98018   1.000
    C157    C    0.72734   0.36943   0.98068   1.000
    C158    C    0.00705   0.56911   0.86150   1.000
    C159    C    0.50701   0.56901   0.86156   1.000
    C160    C    0.28971   0.36863   0.97919   1.000
    C161    C    0.78972   0.36839   0.97969   1.000
    C162    C    0.50175   0.62719   0.72825   1.000
    C163    C    0.00000   0.62731   0.72816   1.000
    C164    C    0.37898   0.32199   0.03387   1.000
    C165    C    0.87896   0.32169   0.03441   1.000
    C166    C    0.32030   0.31995   0.03510   1.000
    C167    C    0.82028   0.31974   0.03565   1.000
    C168    C    0.49765   0.69659   0.59760   1.000
    C169    C    0.99768   0.69647   0.59733   1.000
    C170    C    0.32063   0.41672   0.92329   1.000
    C171    C    0.82066   0.41636   0.92374   1.000
    C172    C    0.37932   0.41593   0.92624   1.000
    C173    C    0.87935   0.41549   0.92668   1.000
    C174    C    0.50389   0.61382   0.64943   1.000
    C175    C    0.00000   0.61387   0.64930   1.000
    C176    C    0.01226   0.52424   0.61998   1.000
    C177    C    0.51217   0.52421   0.62000   1.000
    C178    C    0.01456   0.46040   0.74804   1.000
    C179    C    0.51459   0.46029   0.74807   1.000
    C180    C    0.01749   0.44602   0.66844   1.000
    C181    C    0.51748   0.44596   0.66845   1.000
    C182    C    0.00742   0.55086   0.77746   1.000
    C183    C    0.50739   0.55073   0.77753   1.000
    C184    C    0.36281   0.86807   0.58308   1.000
    C185    C    0.86279   0.86799   0.58288   1.000
    C186    C    0.36054   0.87251   0.45117   1.000
    C187    C    0.86051   0.87287   0.45099   1.000
    C188    C    0.30187   0.87205   0.45060   1.000
    C189    C    0.80184   0.87230   0.45040   1.000
    C190    C    0.30415   0.86800   0.58731   1.000
    C191    C    0.80413   0.86791   0.58711   1.000
    C192    C    0.27223   0.86963   0.51980   1.000
    C193    C    0.77220   0.86967   0.51969   1.000
    C194    C    0.49190   0.07060   0.63841   1.000
    C195    C    0.99277   0.07057   0.63840   1.000
    C196    C    0.20985   0.86871   0.52090   1.000
    C197    C    0.70981   0.86868   0.52072   1.000
    C198    C    0.99781   0.12775   0.77205   1.000
    C199    C    0.49750   0.12776   0.77200   1.000
    C200    C    0.12053   0.82194   0.46652   1.000
    C201    C    0.62050   0.82185   0.46630   1.000
    C202    C    0.17921   0.81984   0.46521   1.000
    C203    C    0.67918   0.81982   0.46499   1.000
    C204    C    0.00227   0.19574   0.90326   1.000
    C205    C    0.50224   0.19571   0.90321   1.000
    C206    C    0.17899   0.91709   0.57665   1.000
    C207    C    0.67892   0.91697   0.57649   1.000
    C208    C    0.12031   0.91644   0.57374   1.000
    C209    C    0.62023   0.91624   0.57358   1.000
    C210    C    0.99602   0.11359   0.85084   1.000
    C211    C    0.49586   0.11359   0.85079   1.000
    C212    C    0.48787   0.02367   0.87978   1.000
    C213    C    0.98811   0.02365   0.87981   1.000
    C214    C    0.48491   0.96095   0.75143   1.000
    C215    C    0.98548   0.96089   0.75144   1.000
    C216    C    0.48238   0.94589   0.83098   1.000
    C217    C    0.98278   0.94585   0.83098   1.000
    C218    C    0.49178   0.05170   0.72237   1.000
    C219    C    0.99237   0.05165   0.72240   1.000
    C220    C    0.36267   0.13198   0.41686   1.000
    C221    C    0.86276   0.13205   0.41712   1.000
    C222    C    0.36043   0.12697   0.54875   1.000
    C223    C    0.86051   0.12719   0.54901   1.000
    C224    C    0.30176   0.12761   0.54935   1.000
    C225    C    0.80184   0.12779   0.54960   1.000
    C226    C    0.30402   0.13207   0.41265   1.000
    C227    C    0.80410   0.13215   0.41290   1.000
    C228    C    0.27212   0.13029   0.48000   1.000
    C229    C    0.77219   0.13041   0.48033   1.000
    C230    C    0.49278   0.92943   0.36158   1.000
    C231    C    0.99277   0.92943   0.36154   1.000
    C232    C    0.20974   0.13129   0.47907   1.000
    C233    C    0.70979   0.13137   0.47932   1.000
    C234    C    0.99781   0.87225   0.22793   1.000
    C235    C    0.49787   0.87227   0.22798   1.000
    C236    C    0.12046   0.17809   0.53348   1.000
    C237    C    0.62047   0.17813   0.53371   1.000
    C238    C    0.17913   0.18015   0.53479   1.000
    C239    C    0.67916   0.18022   0.53502   1.000
    C240    C    0.00227   0.80426   0.09673   1.000
    C241    C    0.50228   0.80429   0.09677   1.000
    C242    C    0.17887   0.08294   0.42330   1.000
    C243    C    0.67892   0.08298   0.42358   1.000
    C244    C    0.12019   0.08361   0.42620   1.000
    C245    C    0.62023   0.08357   0.42653   1.000
    C246    C    0.99601   0.88641   0.14915   1.000
    C247    C    0.49600   0.88642   0.14920   1.000
    C248    C    0.48792   0.97632   0.12024   1.000
    C249    C    0.98811   0.97635   0.12018   1.000
    C250    C    0.48541   0.03911   0.24860   1.000
    C251    C    0.98548   0.03911   0.24854   1.000
    C252    C    0.48258   0.05412   0.16900   1.000
    C253    C    0.98279   0.05415   0.16900   1.000
    C254    C    0.49235   0.94835   0.27763   1.000
    C255    C    0.99236   0.94835   0.27758   1.000
    C256    C    0.10883   0.62965   0.01604   1.000
    C257    C    0.60887   0.62996   0.01556   1.000
    C258    C    0.40815   0.62989   0.01914   1.000
    C259    C    0.90815   0.63030   0.01867   1.000
    C260    C    0.02773   0.64153   0.36272   1.000
    C261    C    0.52775   0.64172   0.36270   1.000
    C262    C    0.10884   0.37038   0.98393   1.000
    C263    C    0.60888   0.37005   0.98443   1.000
    C264    C    0.40816   0.37010   0.98082   1.000
    C265    C    0.90815   0.36968   0.98132   1.000
    C266    C    0.02772   0.35849   0.63725   1.000
    C267    C    0.52778   0.35844   0.63726   1.000
    C268    C    0.39071   0.87046   0.51617   1.000
    C269    C    0.89070   0.87064   0.51597   1.000
    C270    C    0.09142   0.87036   0.51937   1.000
    C271    C    0.59136   0.87018   0.51918   1.000
    C272    C    0.47230   0.85811   0.86188   1.000
    C273    C    0.97272   0.85806   0.86180   1.000
    C274    C    0.39059   0.12923   0.48375   1.000
    C275    C    0.89068   0.12940   0.48400   1.000
    C276    C    0.09133   0.12968   0.48062   1.000
    C277    C    0.59134   0.12965   0.48090   1.000
    C278    C    0.47236   0.14185   0.13816   1.000
    C279    C    0.97273   0.14194   0.13809   1.000
    C280    C    0.00978   0.49772   0.09036   1.000
    C281    C    0.51089   0.49767   0.09037   1.000
    C282    C    0.00504   0.34543   0.11649   1.000
    C283    C    0.50387   0.34560   0.11640   1.000
    C284    C    0.50607   0.31285   0.47392   1.000
    C285    C    0.00000   0.31287   0.47404   1.000
    C286    C    0.48452   0.22486   0.37249   1.000
    C287    C    0.98543   0.22431   0.37220   1.000
    C288    C    0.00977   0.50228   0.90961   1.000
    C289    C    0.51090   0.50230   0.90965   1.000
    C290    C    0.00503   0.65457   0.88349   1.000
    C291    C    0.50389   0.65438   0.88354   1.000
    C292    C    0.50384   0.68715   0.52600   1.000
    C293    C    0.00000   0.68714   0.52590   1.000
    C294    C    0.48648   0.77607   0.62837   1.000
    C295    C    0.98544   0.77571   0.62776   1.000
    C296    C    0.48909   0.00400   0.59004   1.000
    C297    C    0.99012   0.00398   0.59004   1.000
    C298    C    0.49384   0.15610   0.61650   1.000
    C299    C    0.99481   0.15606   0.61658   1.000
    C300    C    0.99712   0.18526   0.97489   1.000
    C301    C    0.49608   0.18544   0.97472   1.000
    C302    C    0.01242   0.27583   0.87281   1.000
    C303    C    0.51344   0.27552   0.87292   1.000
    C304    C    0.49133   0.99609   0.40999   1.000
    C305    C    0.99013   0.99602   0.40994   1.000
    C306    C    0.49374   0.84387   0.38342   1.000
    C307    C    0.99482   0.84394   0.38341   1.000
    C308    C    0.99712   0.81474   0.02500   1.000
    C309    C    0.49609   0.81457   0.02527   1.000
    C310    C    0.01243   0.72418   0.12718   1.000
    C311    C    0.51346   0.72446   0.12705   1.000
    O312    O    0.05869   0.63395   0.01565   1.000
    O313    O    0.95834   0.63428   0.01696   1.000
    O314    O    0.00283   0.72650   0.02013   1.000
    O315    O    0.00916   0.56799   0.05281   1.000
    O316    O    0.01048   0.68122   0.07122   1.000
    O317    O    0.00679   0.64642   0.94937   1.000
    O318    O    0.55872   0.63409   0.01544   1.000
    O319    O    0.45836   0.63405   0.01723   1.000
    O320    O    0.50234   0.72639   0.02029   1.000
    O321    O    0.50973   0.56795   0.05284   1.000
    O322    O    0.51102   0.68134   0.07118   1.000
    O323    O    0.50623   0.64630   0.94942   1.000
    O324    O    0.62281   0.63119   0.04902   1.000
    O325    O    0.62396   0.62879   0.98307   1.000
    O326    O    0.12278   0.63083   0.04950   1.000
    O327    O    0.12392   0.62861   0.98355   1.000
    O328    O    0.89375   0.60740   0.04599   1.000
    O329    O    0.89355   0.65430   0.99213   1.000
    O330    O    0.39373   0.60697   0.04644   1.000
    O331    O    0.39356   0.65394   0.99262   1.000
    O332    O    0.75853   0.63108   0.01983   1.000
    O333    O    0.71138   0.63145   0.05304   1.000
    O334    O    0.71252   0.62928   0.98468   1.000
    O335    O    0.25851   0.63088   0.02025   1.000
    O336    O    0.21135   0.63121   0.05350   1.000
    O337    O    0.21249   0.62920   0.98514   1.000
    O338    O    0.80519   0.60761   0.04830   1.000
    O339    O    0.80499   0.65592   0.99234   1.000
    O340    O    0.30517   0.60732   0.04869   1.000
    O341    O    0.30500   0.65570   0.99279   1.000
    O342    O    0.99970   0.80950   0.06087   1.000
    O343    O    0.49918   0.80943   0.06102   1.000
    O344    O    0.34964   0.32097   0.03449   1.000
    O345    O    0.39148   0.30306   0.05497   1.000
    O346    O    0.39357   0.34604   0.00735   1.000
    O347    O    0.84962   0.32071   0.03503   1.000
    O348    O    0.89145   0.30274   0.05552   1.000
    O349    O    0.89356   0.34568   0.00786   1.000
    O350    O    0.30950   0.29943   0.05684   1.000
    O351    O    0.30501   0.34429   0.00714   1.000
    O352    O    0.80946   0.29926   0.05740   1.000
    O353    O    0.80500   0.34407   0.00767   1.000
    O354    O    0.16836   0.37222   0.04920   1.000
    O355    O    0.12688   0.37321   0.07533   1.000
    O356    O    0.12393   0.37141   0.01642   1.000
    O357    O    0.66839   0.37220   0.04966   1.000
    O358    O    0.62691   0.37329   0.07582   1.000
    O359    O    0.62397   0.37122   0.01692   1.000
    O360    O    0.20892   0.37341   0.07658   1.000
    O361    O    0.21251   0.37081   0.01483   1.000
    O362    O    0.70895   0.37351   0.07704   1.000
    O363    O    0.71253   0.37072   0.01529   1.000
    O364    O    0.98731   0.98133   0.08942   1.000
    O365    O    0.48704   0.98128   0.08948   1.000
    O366    O    0.85000   0.58406   0.07479   1.000
    O367    O    0.89213   0.56580   0.09422   1.000
    O368    O    0.34997   0.58366   0.07521   1.000
    O369    O    0.39207   0.56531   0.09464   1.000
    O370    O    0.81000   0.56373   0.09852   1.000
    O371    O    0.30996   0.56336   0.09892   1.000
    O372    O    0.97779   0.14550   0.10979   1.000
    O373    O    0.47734   0.14545   0.10984   1.000
    O374    O    0.66609   0.63238   0.08461   1.000
    O375    O    0.62360   0.63401   0.10797   1.000
    O376    O    0.16606   0.63201   0.08508   1.000
    O377    O    0.12357   0.63350   0.10845   1.000
    O378    O    0.70570   0.63413   0.11451   1.000
    O379    O    0.20567   0.63377   0.11498   1.000
    O380    O    0.00842   0.46431   0.11442   1.000
    O381    O    0.50892   0.46433   0.11442   1.000
    O382    O    0.00735   0.76422   0.11195   1.000
    O383    O    0.99914   0.84534   0.12294   1.000
    O384    O    0.50787   0.76437   0.11191   1.000
    O385    O    0.49914   0.84535   0.12298   1.000
    O386    O    0.50542   0.38829   0.12743   1.000
    O387    O    0.50623   0.35368   0.05054   1.000
    O388    O    0.00605   0.38816   0.12748   1.000
    O389    O    0.00679   0.35359   0.05060   1.000
    O390    O    0.99206   0.93138   0.13466   1.000
    O391    O    0.98545   0.01525   0.14459   1.000
    O392    O    0.49196   0.93137   0.13472   1.000
    O393    O    0.48525   0.01522   0.14462   1.000
    O394    O    0.97947   0.17012   0.15338   1.000
    O395    O    0.97776   0.09804   0.15354   1.000
    O396    O    0.47903   0.17009   0.15343   1.000
    O397    O    0.47747   0.09799   0.15358   1.000
    O398    O    0.50711   0.44013   0.18048   1.000
    O399    O    0.00725   0.44002   0.18049   1.000
    O400    O    0.99691   0.87933   0.18854   1.000
    O401    O    0.49693   0.87934   0.18859   1.000
    O402    O    0.98413   0.04663   0.20877   1.000
    O403    O    0.48399   0.04661   0.20880   1.000
    O404    O    0.51628   0.56939   0.23244   1.000
    O405    O    0.01617   0.56929   0.23246   1.000
    O406    O    0.51093   0.49452   0.23720   1.000
    O407    O    0.50438   0.41110   0.24717   1.000
    O408    O    0.01100   0.49438   0.23722   1.000
    O409    O    0.00372   0.41092   0.24716   1.000
    O410    O    0.00049   0.83713   0.23894   1.000
    O411    O    0.99508   0.91030   0.25276   1.000
    O412    O    0.50060   0.83716   0.23900   1.000
    O413    O    0.49511   0.91031   0.25281   1.000
    O414    O    0.98892   0.99373   0.26306   1.000
    O415    O    0.98387   0.06865   0.26810   1.000
    O416    O    0.48888   0.99373   0.26312   1.000
    O417    O    0.48379   0.06864   0.26816   1.000
    O418    O    0.99803   0.33771   0.26064   1.000
    O419    O    0.49850   0.33793   0.26067   1.000
    O420    O    0.51606   0.54695   0.29170   1.000
    O421    O    0.01603   0.54681   0.29173   1.000
    O422    O    0.00000   0.37942   0.31121   1.000
    O423    O    0.50267   0.37963   0.31124   1.000
    O424    O    0.99256   0.93889   0.31956   1.000
    O425    O    0.49256   0.93889   0.31961   1.000
    O426    O    0.52263   0.59794   0.34710   1.000
    O427    O    0.51494   0.51505   0.35573   1.000
    O428    O    0.02261   0.59777   0.34712   1.000
    O429    O    0.01488   0.51489   0.35576   1.000
    O430    O    0.02091   0.66986   0.34761   1.000
    O431    O    0.52082   0.66999   0.34764   1.000
    O432    O    0.00613   0.43096   0.36530   1.000
    O433    O    0.99884   0.34484   0.37661   1.000
    O434    O    0.50811   0.43115   0.36531   1.000
    O435    O    0.50079   0.34507   0.37668   1.000
    O436    O    0.29372   0.13394   0.38488   1.000
    O437    O    0.79381   0.13398   0.38515   1.000
    O438    O    0.99379   0.88669   0.37248   1.000
    O439    O    0.99145   0.96273   0.38574   1.000
    O440    O    0.49326   0.88665   0.37250   1.000
    O441    O    0.49205   0.96276   0.38578   1.000
    O442    O    0.52278   0.64506   0.39105   1.000
    O443    O    0.02286   0.64492   0.39110   1.000
    O444    O    0.37582   0.13369   0.39136   1.000
    O445    O    0.87591   0.13368   0.39161   1.000
    O446    O    0.99156   0.26393   0.38742   1.000
    O447    O    0.98823   0.18103   0.42829   1.000
    O448    O    0.49112   0.26432   0.38760   1.000
    O449    O    0.48774   0.18136   0.42842   1.000
    O450    O    0.18956   0.06296   0.40115   1.000
    O451    O    0.68961   0.06301   0.40142   1.000
    O452    O    0.51344   0.48061   0.41074   1.000
    O453    O    0.01327   0.48045   0.41074   1.000
    O454    O    0.99295   0.85311   0.44951   1.000
    O455    O    0.49238   0.85303   0.44956   1.000
    O456    O    0.10743   0.06473   0.40541   1.000
    O457    O    0.60747   0.06464   0.40572   1.000
    O458    O    0.79062   0.87374   0.42331   1.000
    O459    O    0.29064   0.87345   0.42350   1.000
    O460    O    0.87266   0.87378   0.42458   1.000
    O461    O    0.37270   0.87326   0.42477   1.000
    O462    O    0.99884   0.30821   0.43834   1.000
    O463    O    0.50190   0.30832   0.43832   1.000
    O464    O    0.99058   0.06689   0.44716   1.000
    O465    O    0.49114   0.06698   0.44717   1.000
    O466    O    0.33334   0.13203   0.41476   1.000
    O467    O    0.28807   0.13118   0.44633   1.000
    O468    O    0.83343   0.13210   0.41501   1.000
    O469    O    0.78814   0.13128   0.44661   1.000
    O470    O    0.37663   0.13061   0.45031   1.000
    O471    O    0.87672   0.13072   0.45056   1.000
    O472    O    0.68997   0.79922   0.44331   1.000
    O473    O    0.18999   0.79922   0.44354   1.000
    O474    O    0.14953   0.08327   0.42475   1.000
    O475    O    0.19431   0.10711   0.45119   1.000
    O476    O    0.64957   0.08327   0.42506   1.000
    O477    O    0.69435   0.10717   0.45145   1.000
    O478    O    0.60800   0.80277   0.44530   1.000
    O479    O    0.10801   0.80287   0.44554   1.000
    O480    O    0.10576   0.10665   0.45341   1.000
    O481    O    0.60579   0.10661   0.45372   1.000
    O482    O    0.83117   0.87259   0.45070   1.000
    O483    O    0.78702   0.87099   0.48505   1.000
    O484    O    0.33120   0.87228   0.45089   1.000
    O485    O    0.28705   0.87084   0.48520   1.000
    O486    O    0.87560   0.87176   0.48348   1.000
    O487    O    0.37563   0.87148   0.48367   1.000
    O488    O    0.64984   0.82084   0.46565   1.000
    O489    O    0.69449   0.84425   0.49285   1.000
    O490    O    0.14987   0.82089   0.46587   1.000
    O491    O    0.19453   0.84428   0.49306   1.000
    O492    O    0.60593   0.84601   0.49274   1.000
    O493    O    0.10598   0.84615   0.49295   1.000
    O494    O    0.49852   0.22536   0.47913   1.000
    O495    O    0.99551   0.22531   0.47921   1.000
    O496    O    0.24093   0.13079   0.47953   1.000
    O497    O    0.19444   0.15572   0.50693   1.000
    O498    O    0.74099   0.13089   0.47983   1.000
    O499    O    0.69447   0.15579   0.50717   1.000
    O500    O    0.28694   0.12895   0.51467   1.000
    O501    O    0.78701   0.12910   0.51497   1.000
    O502    O    0.04118   0.13372   0.48250   1.000
    O503    O    0.10589   0.15389   0.50705   1.000
    O504    O    0.54115   0.13376   0.48262   1.000
    O505    O    0.60591   0.15389   0.50731   1.000
    O506    O    0.44077   0.13355   0.48405   1.000
    O507    O    0.37551   0.12810   0.51625   1.000
    O508    O    0.94085   0.13358   0.48419   1.000
    O509    O    0.87559   0.12829   0.51650   1.000
    O510    O    0.49240   0.14699   0.55042   1.000
    O511    O    0.99292   0.14691   0.55048   1.000
    O512    O    0.94089   0.86646   0.51579   1.000
    O513    O    0.04125   0.86632   0.51749   1.000
    O514    O    0.99554   0.77471   0.52076   1.000
    O515    O    0.99060   0.93313   0.55283   1.000
    O516    O    0.98826   0.81899   0.57168   1.000
    O517    O    0.44086   0.86633   0.51594   1.000
    O518    O    0.54119   0.86618   0.51745   1.000
    O519    O    0.49743   0.77467   0.52086   1.000
    O520    O    0.49005   0.93310   0.55288   1.000
    O521    O    0.48875   0.81913   0.57204   1.000
    O522    O    0.87674   0.86932   0.54943   1.000
    O523    O    0.37676   0.86927   0.54963   1.000
    O524    O    0.60580   0.89321   0.54638   1.000
    O525    O    0.10586   0.89340   0.54656   1.000
    O526    O    0.74100   0.86918   0.52020   1.000
    O527    O    0.78817   0.86879   0.55340   1.000
    O528    O    0.24104   0.86917   0.52035   1.000
    O529    O    0.28819   0.86882   0.55356   1.000
    O530    O    0.69436   0.89283   0.54860   1.000
    O531    O    0.19442   0.89290   0.54878   1.000
    O532    O    0.99884   0.69180   0.56162   1.000
    O533    O    0.50074   0.69187   0.56180   1.000
    O534    O    0.14980   0.17912   0.53414   1.000
    O535    O    0.10794   0.19715   0.55447   1.000
    O536    O    0.64981   0.17917   0.53437   1.000
    O537    O    0.60796   0.19724   0.55468   1.000
    O538    O    0.18993   0.20076   0.55644   1.000
    O539    O    0.68994   0.20085   0.55670   1.000
    O540    O    0.33110   0.12729   0.54905   1.000
    O541    O    0.37259   0.12604   0.57514   1.000
    O542    O    0.83117   0.12749   0.54931   1.000
    O543    O    0.87266   0.12627   0.57542   1.000
    O544    O    0.29055   0.12616   0.57646   1.000
    O545    O    0.79062   0.12635   0.57671   1.000
    O546    O    0.01326   0.51957   0.58920   1.000
    O547    O    0.51313   0.51953   0.58923   1.000
    O548    O    0.64958   0.91661   0.57503   1.000
    O549    O    0.60748   0.93508   0.59441   1.000
    O550    O    0.14965   0.91676   0.57520   1.000
    O551    O    0.10757   0.93532   0.59455   1.000
    O552    O    0.68961   0.93695   0.59866   1.000
    O553    O    0.18969   0.93707   0.59881   1.000
    O554    O    0.52298   0.35508   0.60887   1.000
    O555    O    0.02286   0.35510   0.60888   1.000
    O556    O    0.83346   0.86795   0.58500   1.000
    O557    O    0.87594   0.86636   0.60837   1.000
    O558    O    0.33348   0.86804   0.58520   1.000
    O559    O    0.37596   0.86656   0.60859   1.000
    O560    O    0.79384   0.86607   0.61487   1.000
    O561    O    0.29386   0.86623   0.61506   1.000
    O562    O    0.49050   0.03730   0.61423   1.000
    O563    O    0.99145   0.03728   0.61422   1.000
    O564    O    0.99156   0.73609   0.61255   1.000
    O565    O    0.99884   0.65517   0.62331   1.000
    O566    O    0.49206   0.73633   0.61299   1.000
    O567    O    0.50077   0.65521   0.62351   1.000
    O568    O    0.49287   0.11335   0.62746   1.000
    O569    O    0.99379   0.11332   0.62749   1.000
    O570    O    0.00613   0.56906   0.63464   1.000
    O571    O    0.01487   0.48513   0.64421   1.000
    O572    O    0.50803   0.56901   0.63472   1.000
    O573    O    0.51483   0.48508   0.64423   1.000
    O574    O    0.02090   0.33016   0.65232   1.000
    O575    O    0.02260   0.40225   0.65285   1.000
    O576    O    0.52088   0.33012   0.65228   1.000
    O577    O    0.52263   0.40220   0.65286   1.000
    O578    O    0.99257   0.06111   0.68040   1.000
    O579    O    0.49184   0.06115   0.68039   1.000
    O580    O    0.00000   0.62059   0.68873   1.000
    O581    O    0.50282   0.62051   0.68884   1.000
    O582    O    0.01602   0.45321   0.70824   1.000
    O583    O    0.51604   0.45313   0.70826   1.000
    O584    O    0.48325   0.93141   0.73188   1.000
    O585    O    0.98388   0.93135   0.73189   1.000
    O586    O    0.48834   0.00632   0.73690   1.000
    O587    O    0.49464   0.08973   0.74719   1.000
    O588    O    0.98892   0.00627   0.73692   1.000
    O589    O    0.99509   0.08970   0.74723   1.000
    O590    O    0.99801   0.66230   0.73933   1.000
    O591    O    0.00371   0.58909   0.75281   1.000
    O592    O    0.49889   0.66217   0.73943   1.000
    O593    O    0.50457   0.58896   0.75289   1.000
    O594    O    0.01099   0.50563   0.76275   1.000
    O595    O    0.01617   0.43073   0.76747   1.000
    O596    O    0.51099   0.50551   0.76280   1.000
    O597    O    0.51626   0.43062   0.76751   1.000
    O598    O    0.50021   0.16287   0.76098   1.000
    O599    O    0.00050   0.16287   0.76104   1.000
    O600    O    0.48364   0.95342   0.79121   1.000
    O601    O    0.98413   0.95337   0.79121   1.000
    O602    O    0.49668   0.12068   0.81140   1.000
    O603    O    0.99691   0.12067   0.81145   1.000
    O604    O    0.00724   0.55999   0.81948   1.000
    O605    O    0.50720   0.55987   0.81955   1.000
    O606    O    0.47734   0.90200   0.84643   1.000
    O607    O    0.48512   0.98478   0.85538   1.000
    O608    O    0.97775   0.90195   0.84639   1.000
    O609    O    0.98544   0.98475   0.85540   1.000
    O610    O    0.47894   0.82991   0.84656   1.000
    O611    O    0.97946   0.82988   0.84655   1.000
    O612    O    0.49186   0.06863   0.86529   1.000
    O613    O    0.49905   0.15465   0.87700   1.000
    O614    O    0.99206   0.06862   0.86533   1.000
    O615    O    0.99914   0.15467   0.87705   1.000
    O616    O    0.20567   0.36627   0.88500   1.000
    O617    O    0.70570   0.36586   0.88549   1.000
    O618    O    0.00604   0.61184   0.87250   1.000
    O619    O    0.00841   0.53570   0.88556   1.000
    O620    O    0.50545   0.61169   0.87255   1.000
    O621    O    0.50895   0.53565   0.88561   1.000
    O622    O    0.97778   0.85449   0.89015   1.000
    O623    O    0.47735   0.85450   0.89018   1.000
    O624    O    0.12357   0.36655   0.89151   1.000
    O625    O    0.62360   0.36599   0.89202   1.000
    O626    O    0.00735   0.23579   0.88804   1.000
    O627    O    0.01048   0.31879   0.92876   1.000
    O628    O    0.50784   0.23562   0.88807   1.000
    O629    O    0.51101   0.31864   0.92880   1.000
    O630    O    0.30997   0.43663   0.90106   1.000
    O631    O    0.81000   0.43626   0.90149   1.000
    O632    O    0.48709   0.01870   0.91055   1.000
    O633    O    0.98730   0.01867   0.91057   1.000
    O634    O    0.39207   0.43467   0.90533   1.000
    O635    O    0.89212   0.43418   0.90577   1.000
    O636    O    0.70893   0.62650   0.92293   1.000
    O637    O    0.20889   0.62659   0.92339   1.000
    O638    O    0.62690   0.62673   0.92417   1.000
    O639    O    0.12685   0.62680   0.92464   1.000
    O640    O    0.49916   0.19057   0.93897   1.000
    O641    O    0.99969   0.19050   0.93908   1.000
    O642    O    0.00915   0.43202   0.94716   1.000
    O643    O    0.50974   0.43203   0.94717   1.000
    O644    O    0.16606   0.36802   0.91489   1.000
    O645    O    0.21135   0.36882   0.94647   1.000
    O646    O    0.66609   0.36762   0.91538   1.000
    O647    O    0.71138   0.36854   0.94697   1.000
    O648    O    0.12278   0.36921   0.95047   1.000
    O649    O    0.62282   0.36881   0.95097   1.000
    O650    O    0.80944   0.70072   0.94262   1.000
    O651    O    0.30948   0.70057   0.94314   1.000
    O652    O    0.34998   0.41633   0.92476   1.000
    O653    O    0.30517   0.39268   0.95124   1.000
    O654    O    0.89143   0.69724   0.94447   1.000
    O655    O    0.85000   0.41593   0.92521   1.000
    O656    O    0.80519   0.39238   0.95171   1.000
    O657    O    0.39146   0.69693   0.94500   1.000
    O658    O    0.39374   0.39301   0.95353   1.000
    O659    O    0.89375   0.39258   0.95400   1.000
    O660    O    0.66837   0.62781   0.95031   1.000
    O661    O    0.16834   0.62779   0.95077   1.000
    O662    O    0.84960   0.67927   0.96497   1.000
    O663    O    0.34963   0.67902   0.96549   1.000
    O664    O    0.50234   0.27360   0.97970   1.000
    O665    O    0.00283   0.27351   0.97980   1.000
    O666    O    0.25851   0.36913   0.97969   1.000
    O667    O    0.75853   0.36891   0.98018   1.000
    O668    O    0.45837   0.36593   0.98275   1.000
    O669    O    0.95835   0.36571   0.98302   1.000
    O670    O    0.05869   0.36606   0.98432   1.000
    O671    O    0.55873   0.36590   0.98456   1.000
loop_
    _geom_bond_atom_site_label_1
    _geom_bond_atom_site_label_2
    _geom_bond_distance
    _geom_bond_site_symmetry_2
    _ccdc_geom_bond_type
    C0     O312      1.18904      .   S
    C256   O312      1.18904      .   S
    C0     O313      1.19031  1_455   S
    C259   O313      1.19031      .   S
    C0     O314      1.27233      .   S
    C308   O314      1.27233  1_655   S
    C0     O315      1.20135      .   S
    C280   O315      1.20135      .   S
    C0     O316      1.15880      .   S
    C310   O316      1.15880      .   S
    C0     O317      1.16165  1_554   S
    C290   O317      1.16165      .   S
    C1     O318      1.18889      .   S
    C257   O318      1.18889      .   S
    C1     O319      1.19097      .   S
    C258   O319      1.19097      .   S
    C1     O320      1.27298      .   S
    C309   O320      1.27298      .   S
    C1     O321      1.20140      .   S
    C281   O321      1.20140      .   S
    C1     O322      1.15925      .   S
    C311   O322      1.15925      .   S
    C1     O323      1.16213  1_554   S
    C291   O323      1.16213      .   S
    C257   O324      0.67338      .   S
    C113   O324      0.67338      .   S
    C257   O325      0.67258  1_554   S
    C115   O325      0.67258      .   S
    C256   O326      0.67333      .   S
    C112   O326      0.67333      .   S
    C256   O327      0.67263  1_554   S
    C114   O327      0.67263      .   S
    C259   O328      0.67296      .   S
    C137   O328      0.67296      .   S
    C259   O329      0.67363  1_554   S
    C129   O329      0.67363      .   S
    C258   O330      0.67295      .   S
    C136   O330      0.67295      .   S
    C258   O331      0.67366  1_554   S
    C128   O331      0.67366      .   S
    C121   O332      0.73868      .   S
    C125   O332      0.73868      .   S
    C121   O333      0.70166      .   S
    C119   O333      0.70166      .   S
    C121   O334      0.70171  1_554   S
    C117   O334      0.70171      .   S
    C120   O335      0.73876      .   S
    C124   O335      0.73876      .   S
    C120   O336      0.70167      .   S
    C118   O336      0.70167      .   S
    C120   O337      0.70175  1_554   S
    C116   O337      0.70175      .   S
    C125   O338      0.70162      .   S
    C135   O338      0.70162      .   S
    C125   O339      0.70163  1_554   S
    C131   O339      0.70163      .   S
    C124   O340      0.70214      .   S
    C134   O340      0.70214      .   S
    C124   O341      0.70118  1_554   S
    C130   O341      0.70118      .   S
    C308   O342      0.63612      .   S
    C240   O342      0.63612  1_455   S
    C309   O343      0.63526      .   S
    C241   O343      0.63526      .   S
    C164   O344      0.69498      .   S
    C166   O344      0.69498      .   S
    C164   O345      0.54554      .   S
    C44    O345      0.54554      .   S
    C164   O346      0.67363      .   S
    C264   O346      0.67363  1_556   S
    C165   O347      0.69498      .   S
    C167   O347      0.69498      .   S
    C165   O348      0.54563      .   S
    C45    O348      0.54563      .   S
    C165   O349      0.67353      .   S
    C265   O349      0.67353  1_556   S
    C166   O350      0.54475      .   S
    C46    O350      0.54475      .   S
    C166   O351      0.70175      .   S
    C160   O351      0.70175  1_556   S
    C167   O352      0.54473      .   S
    C47    O352      0.54473      .   S
    C167   O353      0.70174      .   S
    C161   O353      0.70174  1_556   S
    C150   O354      0.69466      .   S
    C152   O354      0.69466      .   S
    C150   O355      0.54526      .   S
    C36    O355      0.54526      .   S
    C150   O356      0.67270      .   S
    C262   O356      0.67270  1_556   S
    C151   O357      0.69463      .   S
    C153   O357      0.69463      .   S
    C151   O358      0.54524      .   S
    C37    O358      0.54524      .   S
    C151   O359      0.67262      .   S
    C263   O359      0.67262  1_556   S
    C152   O360      0.54474      .   S
    C38    O360      0.54474      .   S
    C152   O361      0.70168      .   S
    C156   O361      0.70168  1_556   S
    C153   O362      0.54536      .   S
    C39    O362      0.54536      .   S
    C153   O363      0.70107      .   S
    C157   O363      0.70107  1_556   S
    C105   O364      0.54426      .   S
    C249   O364      0.54426      .   S
    C104   O365      0.54431      .   S
    C248   O365      0.54431      .   S
    C137   O366      0.69531      .   S
    C135   O366      0.69531      .   S
    C137   O367      0.54523      .   S
    C25    O367      0.54523      .   S
    C136   O368      0.69535      .   S
    C134   O368      0.69535      .   S
    C136   O369      0.54520      .   S
    C24    O369      0.54520      .   S
    C135   O370      0.54474      .   S
    C23    O370      0.54474      .   S
    C134   O371      0.54477      .   S
    C22    O371      0.54477      .   S
    C111   O372      0.51295      .   S
    C279   O372      0.51295      .   S
    C110   O373      0.51290      .   S
    C278   O373      0.51290      .   S
    C113   O374      0.69546      .   S
    C119   O374      0.69546      .   S
    C113   O375      0.54534      .   S
    C9     O375      0.54534      .   S
    C112   O376      0.69548      .   S
    C118   O376      0.69548      .   S
    C112   O377      0.54533      .   S
    C8     O377      0.54533      .   S
    C119   O378      0.54489      .   S
    C15    O378      0.54489      .   S
    C118   O379      0.54487      .   S
    C14    O379      0.54487      .   S
    C280   O380      0.63809      .   S
    C122   O380      0.63809      .   S
    C281   O381      0.63816      .   S
    C123   O381      0.63816      .   S
    C240   O382      0.64315      .   S
    C310   O382      0.64315      .   S
    C240   O383      0.74973  1_455   S
    C246   O383      0.74973      .   S
    C241   O384      0.64325      .   S
    C311   O384      0.64325      .   S
    C241   O385      0.74971      .   S
    C247   O385      0.74971      .   S
    C283   O386      0.64161      .   S
    C123   O386      0.64161      .   S
    C283   O387      1.16172      .   S
    C3     O387      1.16172  1_556   S
    C282   O388      0.64137      .   S
    C122   O388      0.64137      .   S
    C282   O389      1.16174      .   S
    C2     O389      1.16174  1_556   S
    C249   O390      0.69775      .   S
    C246   O390      0.69775      .   S
    C249   O391      0.70496  1_565   S
    C253   O391      0.70496      .   S
    C248   O392      0.69776      .   S
    C247   O392      0.69776      .   S
    C248   O393      0.70468  1_565   S
    C252   O393      0.70468      .   S
    C279   O394      0.50978      .   S
    C109   O394      0.50978      .   S
    C279   O395      0.69402      .   S
    C253   O395      0.69402      .   S
    C278   O396      0.50975      .   S
    C108   O396      0.50975      .   S
    C278   O397      0.69372      .   S
    C252   O397      0.69372      .   S
    C123   O398      0.74833      .   S
    C147   O398      0.74833      .   S
    C122   O399      0.74825      .   S
    C146   O399      0.74825      .   S
    C246   O400      0.69824      .   S
    C234   O400      0.69824      .   S
    C247   O401      0.69826      .   S
    C235   O401      0.69826      .   S
    C253   O402      0.70616      .   S
    C251   O402      0.70616      .   S
    C252   O403      0.70673      .   S
    C250   O403      0.70673      .   S
    C29    O404      0.54564      .   S
    C143   O404      0.54564      .   S
    C28    O405      0.54576      .   S
    C142   O405      0.54576      .   S
    C147   O406      0.70184      .   S
    C143   O406      0.70184      .   S
    C147   O407      0.69996      .   S
    C126   O407      0.69996      .   S
    C146   O408      0.70176      .   S
    C142   O408      0.70176      .   S
    C146   O409      0.70231      .   S
    C127   O409      0.70231      .   S
    C234   O410      0.54188  1_655   S
    C94    O410      0.54188      .   S
    C234   O411      0.70001      .   S
    C255   O411      0.70001      .   S
    C235   O412      0.54188      .   S
    C95    O412      0.54188      .   S
    C235   O413      0.70002      .   S
    C254   O413      0.70002      .   S
    C251   O414      0.70190  1_545   S
    C255   O414      0.70190      .   S
    C251   O415      0.54560      .   S
    C107   O415      0.54560      .   S
    C250   O416      0.70189  1_545   S
    C254   O416      0.70189      .   S
    C250   O417      0.54559      .   S
    C106   O417      0.54559      .   S
    C17    O418      0.53958      .   S
    C127   O418      0.53958  1_455   S
    C16    O419      0.54183      .   S
    C126   O419      0.54183      .   S
    C143   O420      0.70616      .   S
    C145   O420      0.70616      .   S
    C142   O421      0.70621      .   S
    C144   O421      0.70621      .   S
    C127   O422      0.69738      .   S
    C139   O422      0.69738      .   S
    C126   O423      0.69820      .   S
    C138   O423      0.69820      .   S
    C255   O424      0.74827      .   S
    C231   O424      0.74827      .   S
    C254   O425      0.74820      .   S
    C230   O425      0.74820      .   S
    C145   O426      0.69415      .   S
    C261   O426      0.69415      .   S
    C145   O427      0.70493      .   S
    C141   O427      0.70493      .   S
    C144   O428      0.69387      .   S
    C260   O428      0.69387      .   S
    C144   O429      0.70503      .   S
    C140   O429      0.70503      .   S
    C30    O430      0.51024      .   S
    C260   O430      0.51024      .   S
    C31    O431      0.50992      .   S
    C261   O431      0.50992      .   S
    C139   O432      0.70608      .   S
    C140   O432      0.70608      .   S
    C139   O433      0.74664  1_455   S
    C133   O433      0.74664      .   S
    C138   O434      0.69780      .   S
    C141   O434      0.69780      .   S
    C138   O435      0.74960      .   S
    C132   O435      0.74960      .   S
    C92    O436      0.54525      .   S
    C226   O436      0.54525      .   S
    C93    O437      0.54484      .   S
    C227   O437      0.54484      .   S
    C231   O438      0.64114      .   S
    C307   O438      0.64114      .   S
    C231   O439      0.63876      .   S
    C305   O439      0.63876      .   S
    C230   O440      0.64113      .   S
    C306   O440      0.64113      .   S
    C230   O441      0.63868      .   S
    C304   O441      0.63868      .   S
    C261   O442      0.51302      .   S
    C33    O442      0.51302      .   S
    C260   O443      0.51297      .   S
    C32    O443      0.51297      .   S
    C86    O444      0.54529      .   S
    C220   O444      0.54529      .   S
    C87    O445      0.54544      .   S
    C221   O445      0.54544      .   S
    C287   O446      0.64301      .   S
    C133   O446      0.64301      .   S
    C287   O447      1.16353      .   S
    C7     O447      1.16353      .   S
    C286   O448      0.64299      .   S
    C132   O448      0.64299      .   S
    C286   O449      1.16344      .   S
    C6     O449      1.16344      .   S
    C100   O450      0.54470      .   S
    C242   O450      0.54470      .   S
    C101   O451      0.54476      .   S
    C243   O451      0.54476      .   S
    C141   O452      0.54429      .   S
    C27    O452      0.54429      .   S
    C140   O453      0.54387      .   S
    C26    O453      0.54387      .   S
    C307   O454      1.16717      .   S
    C5     O454      1.16717      .   S
    C306   O455      1.16754      .   S
    C4     O455      1.16754      .   S
    C102   O456      0.54500      .   S
    C244   O456      0.54500      .   S
    C103   O457      0.54569      .   S
    C245   O457      0.54569      .   S
    C65    O458      0.54466      .   S
    C189   O458      0.54466      .   S
    C64    O459      0.54479      .   S
    C188   O459      0.54479      .   S
    C63    O460      0.54516      .   S
    C187   O460      0.54516      .   S
    C62    O461      0.54519      .   S
    C186   O461      0.54519      .   S
    C133   O462      0.63015      .   S
    C285   O462      0.63015  1_455   S
    C132   O463      0.63534      .   S
    C284   O463      0.63534      .   S
    C305   O464      1.20582  1_565   S
    C7     O464      1.20582      .   S
    C304   O465      1.20569  1_565   S
    C6     O465      1.20569      .   S
    C226   O466      0.69544      .   S
    C220   O466      0.69544      .   S
    C226   O467      0.70096      .   S
    C228   O467      0.70096      .   S
    C227   O468      0.69546      .   S
    C221   O468      0.69546      .   S
    C227   O469      0.70166      .   S
    C229   O469      0.70166      .   S
    C220   O470      0.67338      .   S
    C274   O470      0.67338      .   S
    C221   O471      0.67329      .   S
    C275   O471      0.67329      .   S
    C73    O472      0.54472      .   S
    C203   O472      0.54472      .   S
    C72    O473      0.54476      .   S
    C202   O473      0.54476      .   S
    C242   O474      0.69527      .   S
    C244   O474      0.69527      .   S
    C242   O475      0.70162      .   S
    C232   O475      0.70162      .   S
    C243   O476      0.69536      .   S
    C245   O476      0.69536      .   S
    C243   O477      0.70159      .   S
    C233   O477      0.70159      .   S
    C71    O478      0.54568      .   S
    C201   O478      0.54568      .   S
    C70    O479      0.54559      .   S
    C200   O479      0.54559      .   S
    C244   O480      0.67313      .   S
    C276   O480      0.67313      .   S
    C245   O481      0.67298      .   S
    C277   O481      0.67298      .   S
    C189   O482      0.69471      .   S
    C187   O482      0.69471      .   S
    C189   O483      0.70171      .   S
    C193   O483      0.70171      .   S
    C188   O484      0.69468      .   S
    C186   O484      0.69468      .   S
    C188   O485      0.70098      .   S
    C192   O485      0.70098      .   S
    C187   O486      0.67260      .   S
    C269   O486      0.67260      .   S
    C186   O487      0.67265      .   S
    C268   O487      0.67265      .   S
    C203   O488      0.69503      .   S
    C201   O488      0.69503      .   S
    C203   O489      0.70166      .   S
    C197   O489      0.70166      .   S
    C202   O490      0.69497      .   S
    C200   O490      0.69497      .   S
    C202   O491      0.70156      .   S
    C196   O491      0.70156      .   S
    C201   O492      0.67348      .   S
    C271   O492      0.67348      .   S
    C200   O493      0.67348      .   S
    C270   O493      0.67348      .   S
    C284   O494      1.26742      .   S
    C6     O494      1.26742      .   S
    C285   O495      1.26012  1_455   S
    C7     O495      1.26012      .   S
    C232   O496      0.73863      .   S
    C228   O496      0.73863      .   S
    C232   O497      0.70162      .   S
    C238   O497      0.70162      .   S
    C233   O498      0.73882      .   S
    C229   O498      0.73882      .   S
    C233   O499      0.70161      .   S
    C239   O499      0.70161      .   S
    C228   O500      0.70218      .   S
    C224   O500      0.70218      .   S
    C229   O501      0.70161      .   S
    C225   O501      0.70161      .   S
    C276   O502      1.18939      .   S
    C7     O502      1.18939  1_655   S
    C276   O503      0.67350      .   S
    C236   O503      0.67350      .   S
    C277   O504      1.19037      .   S
    C6     O504      1.19037      .   S
    C277   O505      0.67350      .   S
    C237   O505      0.67350      .   S
    C274   O506      1.18989      .   S
    C6     O506      1.18989      .   S
    C274   O507      0.67264      .   S
    C222   O507      0.67264      .   S
    C275   O508      1.18956      .   S
    C7     O508      1.18956      .   S
    C275   O509      0.67276      .   S
    C223   O509      0.67276      .   S
    C6     O510      1.16639      .   S
    C298   O510      1.16639      .   S
    C7     O511      1.16724      .   S
    C299   O511      1.16724      .   S
    C5     O512      1.18996      .   S
    C269   O512      1.18996      .   S
    C5     O513      1.18987  1_655   S
    C270   O513      1.18987      .   S
    C5     O514      1.26023      .   S
    C293   O514      1.26023  1_455   S
    C5     O515      1.20565      .   S
    C297   O515      1.20565  1_545   S
    C5     O516      1.16348      .   S
    C295   O516      1.16348      .   S
    C4     O517      1.18902      .   S
    C268   O517      1.18902      .   S
    C4     O518      1.18979      .   S
    C271   O518      1.18979      .   S
    C4     O519      1.26425      .   S
    C292   O519      1.26425      .   S
    C4     O520      1.20600      .   S
    C296   O520      1.20600  1_545   S
    C4     O521      1.16489      .   S
    C294   O521      1.16489      .   S
    C269   O522      0.67348      .   S
    C185   O522      0.67348      .   S
    C268   O523      0.67342      .   S
    C184   O523      0.67342      .   S
    C271   O524      0.67294      .   S
    C209   O524      0.67294      .   S
    C270   O525      0.67291      .   S
    C208   O525      0.67291      .   S
    C193   O526      0.73883      .   S
    C197   O526      0.73883      .   S
    C193   O527      0.70163      .   S
    C191   O527      0.70163      .   S
    C192   O528      0.73871      .   S
    C196   O528      0.73871      .   S
    C192   O529      0.70223      .   S
    C190   O529      0.70223      .   S
    C197   O530      0.70161      .   S
    C207   O530      0.70161      .   S
    C196   O531      0.70158      .   S
    C206   O531      0.70158      .   S
    C293   O532      0.63033  1_455   S
    C169   O532      0.63033      .   S
    C292   O533      0.63555      .   S
    C168   O533      0.63555      .   S
    C236   O534      0.69494      .   S
    C238   O534      0.69494      .   S
    C236   O535      0.54562      .   S
    C96    O535      0.54562      .   S
    C237   O536      0.69502      .   S
    C239   O536      0.69502      .   S
    C237   O537      0.54559      .   S
    C97    O537      0.54559      .   S
    C238   O538      0.54448      .   S
    C98    O538      0.54448      .   S
    C239   O539      0.54477      .   S
    C99    O539      0.54477      .   S
    C222   O540      0.69467      .   S
    C224   O540      0.69467      .   S
    C222   O541      0.54514      .   S
    C88    O541      0.54514      .   S
    C223   O542      0.69470      .   S
    C225   O542      0.69470      .   S
    C223   O543      0.54521      .   S
    C89    O543      0.54521      .   S
    C224   O544      0.54478      .   S
    C90    O544      0.54478      .   S
    C225   O545      0.54479      .   S
    C91    O545      0.54479      .   S
    C52    O546      0.54423      .   S
    C176   O546      0.54423      .   S
    C53    O547      0.54418      .   S
    C177   O547      0.54418      .   S
    C209   O548      0.69536      .   S
    C207   O548      0.69536      .   S
    C209   O549      0.54525      .   S
    C77    O549      0.54525      .   S
    C208   O550      0.69532      .   S
    C206   O550      0.69532      .   S
    C208   O551      0.54522      .   S
    C76    O551      0.54522      .   S
    C207   O552      0.54476      .   S
    C75    O552      0.54476      .   S
    C206   O553      0.54479      .   S
    C74    O553      0.54479      .   S
    C59    O554      0.51287      .   S
    C267   O554      0.51287      .   S
    C58    O555      0.51295      .   S
    C266   O555      0.51295      .   S
    C185   O556      0.69547      .   S
    C191   O556      0.69547      .   S
    C185   O557      0.54526      .   S
    C61    O557      0.54526      .   S
    C184   O558      0.69544      .   S
    C190   O558      0.69544      .   S
    C184   O559      0.54531      .   S
    C60    O559      0.54531      .   S
    C191   O560      0.54489      .   S
    C67    O560      0.54489      .   S
    C190   O561      0.54464      .   S
    C66    O561      0.54464      .   S
    C296   O562      0.63869      .   S
    C194   O562      0.63869      .   S
    C297   O563      0.63852      .   S
    C195   O563      0.63852      .   S
    C169   O564      0.64305      .   S
    C295   O564      0.64305      .   S
    C169   O565      0.74632      .   S
    C175   O565      0.74632  1_455   S
    C168   O566      0.64304      .   S
    C294   O566      0.64304      .   S
    C168   O567      0.74970      .   S
    C174   O567      0.74970      .   S
    C298   O568      0.64132      .   S
    C194   O568      0.64132      .   S
    C299   O569      0.64102      .   S
    C195   O569      0.64102      .   S
    C176   O570      0.70584      .   S
    C175   O570      0.70584      .   S
    C176   O571      0.70503      .   S
    C180   O571      0.70503      .   S
    C177   O572      0.69797      .   S
    C174   O572      0.69797      .   S
    C177   O573      0.70515      .   S
    C181   O573      0.70515      .   S
    C266   O574      0.50990      .   S
    C56    O574      0.50990      .   S
    C266   O575      0.69388      .   S
    C180   O575      0.69388      .   S
    C267   O576      0.50993      .   S
    C57    O576      0.50993      .   S
    C267   O577      0.69398      .   S
    C181   O577      0.69398      .   S
    C195   O578      0.74862      .   S
    C219   O578      0.74862      .   S
    C194   O579      0.74824      .   S
    C218   O579      0.74824      .   S
    C175   O580      0.69799      .   S
    C163   O580      0.69799      .   S
    C174   O581      0.69803      .   S
    C162   O581      0.69803      .   S
    C180   O582      0.70622      .   S
    C178   O582      0.70622      .   S
    C181   O583      0.70632      .   S
    C179   O583      0.70632      .   S
    C80    O584      0.54556      .   S
    C214   O584      0.54556      .   S
    C81    O585      0.54559      .   S
    C215   O585      0.54559      .   S
    C218   O586      0.70185      .   S
    C214   O586      0.70185  1_565   S
    C218   O587      0.70004      .   S
    C199   O587      0.70004      .   S
    C219   O588      0.70190      .   S
    C215   O588      0.70190  1_565   S
    C219   O589      0.70000      .   S
    C198   O589      0.70000      .   S
    C163   O590      0.53959  1_455   S
    C43    O590      0.53959      .   S
    C163   O591      0.70229      .   S
    C182   O591      0.70229      .   S
    C162   O592      0.54181      .   S
    C42    O592      0.54181      .   S
    C162   O593      0.69992      .   S
    C183   O593      0.69992      .   S
    C178   O594      0.70176      .   S
    C182   O594      0.70176      .   S
    C178   O595      0.54538      .   S
    C54    O595      0.54538      .   S
    C179   O596      0.70176      .   S
    C183   O596      0.70176      .   S
    C179   O597      0.54561      .   S
    C55    O597      0.54561      .   S
    C69    O598      0.54189      .   S
    C199   O598      0.54189      .   S
    C68    O599      0.54186      .   S
    C198   O599      0.54186  1_655   S
    C214   O600      0.70619      .   S
    C216   O600      0.70619      .   S
    C215   O601      0.70617      .   S
    C217   O601      0.70617      .   S
    C199   O602      0.69829      .   S
    C211   O602      0.69829      .   S
    C198   O603      0.69833      .   S
    C210   O603      0.69833      .   S
    C182   O604      0.74825      .   S
    C158   O604      0.74825      .   S
    C183   O605      0.74820      .   S
    C159   O605      0.74820      .   S
    C216   O606      0.69392      .   S
    C272   O606      0.69392      .   S
    C216   O607      0.70493      .   S
    C212   O607      0.70493  1_545   S
    C217   O608      0.69373      .   S
    C273   O608      0.69373      .   S
    C217   O609      0.70500      .   S
    C213   O609      0.70500  1_545   S
    C82    O610      0.50973      .   S
    C272   O610      0.50973      .   S
    C83    O611      0.50945      .   S
    C273   O611      0.50945      .   S
    C211   O612      0.69779      .   S
    C212   O612      0.69779      .   S
    C211   O613      0.74970      .   S
    C205   O613      0.74970      .   S
    C210   O614      0.69776      .   S
    C213   O614      0.69776      .   S
    C210   O615      0.74973      .   S
    C204   O615      0.74973  1_455   S
    C40    O616      0.54487      .   S
    C154   O616      0.54487      .   S
    C41    O617      0.54485      .   S
    C155   O617      0.54485      .   S
    C158   O618      0.64140      .   S
    C290   O618      0.64140      .   S
    C158   O619      0.63810      .   S
    C288   O619      0.63810      .   S
    C159   O620      0.64140      .   S
    C291   O620      0.64140      .   S
    C159   O621      0.63817      .   S
    C289   O621      0.63817      .   S
    C273   O622      0.51368      .   S
    C85    O622      0.51368      .   S
    C272   O623      0.51284      .   S
    C84    O623      0.51284      .   S
    C34    O624      0.54545      .   S
    C148   O624      0.54545      .   S
    C35    O625      0.54530      .   S
    C149   O625      0.54530      .   S
    C302   O626      0.64313      .   S
    C204   O626      0.64313      .   S
    C302   O627      1.15867      .   S
    C2     O627      1.15867      .   S
    C303   O628      0.64325      .   S
    C205   O628      0.64325      .   S
    C303   O629      1.15935      .   S
    C3     O629      1.15935      .   S
    C48    O630      0.54476      .   S
    C170   O630      0.54476      .   S
    C49    O631      0.54476      .   S
    C171   O631      0.54476      .   S
    C212   O632      0.54432      .   S
    C78    O632      0.54432      .   S
    C213   O633      0.54427      .   S
    C79    O633      0.54427      .   S
    C50    O634      0.54524      .   S
    C172   O634      0.54524      .   S
    C51    O635      0.54519      .   S
    C173   O635      0.54519      .   S
    C13    O636      0.54478      .   S
    C117   O636      0.54478      .   S
    C12    O637      0.54476      .   S
    C116   O637      0.54476      .   S
    C11    O638      0.54518      .   S
    C115   O638      0.54518      .   S
    C10    O639      0.54525      .   S
    C114   O639      0.54525      .   S
    C205   O640      0.63531      .   S
    C301   O640      0.63531      .   S
    C204   O641      0.63527  1_455   S
    C300   O641      0.63527      .   S
    C288   O642      1.20132      .   S
    C2     O642      1.20132      .   S
    C289   O643      1.20124      .   S
    C3     O643      1.20124      .   S
    C154   O644      0.69549      .   S
    C148   O644      0.69549      .   S
    C154   O645      0.70166      .   S
    C156   O645      0.70166      .   S
    C155   O646      0.69546      .   S
    C149   O646      0.69546      .   S
    C155   O647      0.70169      .   S
    C157   O647      0.70169      .   S
    C148   O648      0.67334      .   S
    C262   O648      0.67334      .   S
    C149   O649      0.67341      .   S
    C263   O649      0.67341      .   S
    C21    O650      0.54474      .   S
    C131   O650      0.54474      .   S
    C20    O651      0.54476      .   S
    C130   O651      0.54476      .   S
    C170   O652      0.69535      .   S
    C172   O652      0.69535      .   S
    C170   O653      0.70164      .   S
    C160   O653      0.70164      .   S
    C19    O654      0.54564      .   S
    C129   O654      0.54564      .   S
    C171   O655      0.69531      .   S
    C173   O655      0.69531      .   S
    C171   O656      0.70160      .   S
    C161   O656      0.70160      .   S
    C18    O657      0.54557      .   S
    C128   O657      0.54557      .   S
    C172   O658      0.67289      .   S
    C264   O658      0.67289      .   S
    C173   O659      0.67300      .   S
    C265   O659      0.67300      .   S
    C117   O660      0.69463      .   S
    C115   O660      0.69463      .   S
    C116   O661      0.69465      .   S
    C114   O661      0.69465      .   S
    C131   O662      0.69498      .   S
    C129   O662      0.69498      .   S
    C130   O663      0.69498      .   S
    C128   O663      0.69498      .   S
    C301   O664      1.27274      .   S
    C3     O664      1.27274      .   S
    C300   O665      1.27239  1_655   S
    C2     O665      1.27239      .   S
    C160   O666      0.73878      .   S
    C156   O666      0.73878      .   S
    C161   O667      0.73869      .   S
    C157   O667      0.73869      .   S
    C264   O668      1.19104      .   S
    C3     O668      1.19104      .   S
    C265   O669      1.19029      .   S
    C2     O669      1.19029  1_455   S
    C262   O670      1.18906      .   S
    C2     O670      1.18906      .   S
    C263   O671      1.18881      .   S
    C3     O671      1.18881      .   S
