# CIF file generated by openbabel 2.4.90, see http://openbabel.sf.net
data_I
_chemical_name_common ''
_cell_length_a 12.819
_cell_length_b 14.257
_cell_length_c 20.172
_cell_angle_alpha 89.872
_cell_angle_beta 95.078
_cell_angle_gamma 90.126
_space_group_name_H-M_alt 'P 1'
_space_group_name_Hall 'P 1'
loop_
    _symmetry_equiv_pos_as_xyz
    x,y,z
loop_
    _atom_site_label
    _atom_site_type_symbol
    _atom_site_fract_x
    _atom_site_fract_y
    _atom_site_fract_z
    _atom_site_occupancy
    H0      H    0.05398   0.30147   0.67276   1.000
    H1      H    0.55471   0.30068   0.67286   1.000
    H2      H    0.12210   0.20805   0.77245   1.000
    H3      H    0.62319   0.20739   0.77256   1.000
    H4      H    0.42912   0.32306   0.75752   1.000
    H5      H    0.92949   0.32420   0.75815   1.000
    H6      H    0.36264   0.41224   0.65594   1.000
    H7      H    0.86271   0.41322   0.65650   1.000
    H8      H    0.36289   0.37081   0.96442   1.000
    H9      H    0.86153   0.37060   0.96468   1.000
    H10     H    0.06817   0.46657   0.02536   1.000
    H11     H    0.56702   0.46629   0.02592   1.000
    H12     H    0.10207   0.64502   0.46201   1.000
    H13     H    0.60145   0.64221   0.46180   1.000
    H14     H    0.41914   0.55336   0.60894   1.000
    H15     H    0.91915   0.55304   0.60857   1.000
    H16     H    0.44483   0.80367   0.82658   1.000
    H17     H    0.94476   0.80275   0.82719   1.000
    H18     H    0.37696   0.71092   0.72660   1.000
    H19     H    0.87706   0.70938   0.72752   1.000
    H20     H    0.06971   0.82403   0.74172   1.000
    H21     H    0.57002   0.82349   0.74151   1.000
    H22     H    0.13589   0.91231   0.84364   1.000
    H23     H    0.63608   0.91270   0.84302   1.000
    H24     H    0.13834   0.86853   0.53499   1.000
    H25     H    0.63717   0.86939   0.53501   1.000
    H26     H    0.43166   0.96956   0.47422   1.000
    H27     H    0.93099   0.96789   0.47339   1.000
    H28     H    0.39696   0.14362   0.03807   1.000
    H29     H    0.89746   0.14341   0.03778   1.000
    H30     H    0.07979   0.05191   0.89106   1.000
    H31     H    0.57914   0.05179   0.89121   1.000
    H32     H    0.44427   0.69844   0.32733   1.000
    H33     H    0.94450   0.69886   0.32773   1.000
    H34     H    0.37633   0.79187   0.22750   1.000
    H35     H    0.87695   0.79244   0.22793   1.000
    H36     H    0.06933   0.67663   0.24215   1.000
    H37     H    0.56981   0.67717   0.24191   1.000
    H38     H    0.13560   0.58748   0.34380   1.000
    H39     H    0.63575   0.58771   0.34352   1.000
    H40     H    0.13820   0.62944   0.03521   1.000
    H41     H    0.63689   0.62916   0.03562   1.000
    H42     H    0.43280   0.53367   0.97415   1.000
    H43     H    0.93154   0.53347   0.97453   1.000
    H44     H    0.39576   0.35483   0.53807   1.000
    H45     H    0.89633   0.35772   0.53831   1.000
    H46     H    0.07868   0.44660   0.39118   1.000
    H47     H    0.57871   0.44705   0.39159   1.000
    H48     H    0.05399   0.19639   0.17291   1.000
    H49     H    0.55385   0.19718   0.17251   1.000
    H50     H    0.12136   0.28930   0.27292   1.000
    H51     H    0.62108   0.29051   0.27231   1.000
    H52     H    0.42879   0.17624   0.25847   1.000
    H53     H    0.92862   0.17749   0.25830   1.000
    H54     H    0.36309   0.08772   0.15655   1.000
    H55     H    0.86302   0.08836   0.15663   1.000
    H56     H    0.35961   0.13146   0.46521   1.000
    H57     H    0.86070   0.13050   0.46460   1.000
    H58     H    0.06627   0.03041   0.52595   1.000
    H59     H    0.56690   0.03201   0.52633   1.000
    H60     H    0.10221   0.85637   0.96215   1.000
    H61     H    0.60232   0.85696   0.96182   1.000
    H62     H    0.42019   0.94798   0.10899   1.000
    H63     H    0.91972   0.94828   0.10861   1.000
    C64     C    0.16356   0.42134   0.59958   1.000
    C65     C    0.66391   0.42118   0.59980   1.000
    C66     C    0.20368   0.36337   0.65833   1.000
    C67     C    0.70407   0.36342   0.65867   1.000
    C68     C    0.13625   0.30533   0.69132   1.000
    C69     C    0.63690   0.30497   0.69154   1.000
    C70     C    0.17420   0.25317   0.74675   1.000
    C71     C    0.67506   0.25289   0.74697   1.000
    C72     C    0.28003   0.25962   0.77096   1.000
    C73     C    0.78079   0.25986   0.77130   1.000
    C74     C    0.34749   0.31757   0.73792   1.000
    C75     C    0.84795   0.31828   0.73843   1.000
    C76     C    0.30999   0.36787   0.68174   1.000
    C77     C    0.81026   0.36851   0.68226   1.000
    C78     C    0.32119   0.20790   0.83277   1.000
    C79     C    0.82221   0.20804   0.83302   1.000
    O80     O    0.93286   0.93381   0.91140   1.000
    O81     O    0.08372   0.73189   0.64426   1.000
    O82     O    0.58354   0.72849   0.64510   1.000
    O83     O    0.23617   0.65064   0.64157   1.000
    C84     C    0.16748   0.31100   0.98573   1.000
    C85     C    0.66599   0.31087   0.98584   1.000
    C86     C    0.21065   0.40842   0.99409   1.000
    C87     C    0.70934   0.40821   0.99441   1.000
    C88     C    0.31393   0.42739   0.98013   1.000
    C89     C    0.81263   0.42719   0.98044   1.000
    C90     C    0.14779   0.48186   0.01389   1.000
    C91     C    0.64656   0.48162   0.01433   1.000
    C92     C    0.33479   0.92140   0.90022   1.000
    C93     C    0.83475   0.92151   0.90016   1.000
    C94     C    0.29491   0.86428   0.84117   1.000
    C95     C    0.79497   0.86406   0.84119   1.000
    C96     C    0.36256   0.80718   0.80800   1.000
    C97     C    0.86258   0.80641   0.80843   1.000
    C98     C    0.32478   0.75546   0.75243   1.000
    C99     C    0.82488   0.75429   0.75303   1.000
    C100    C    0.21891   0.76149   0.72831   1.000
    C101    C    0.71912   0.76039   0.72865   1.000
    C102    C    0.15132   0.81877   0.76130   1.000
    C103    C    0.65154   0.81817   0.76133   1.000
    C104    C    0.18863   0.86855   0.81772   1.000
    C105    C    0.68881   0.86846   0.81747   1.000
    C106    C    0.17766   0.70994   0.66657   1.000
    C107    C    0.67820   0.70839   0.66702   1.000
    C108    C    0.33411   0.81183   0.51339   1.000
    C109    C    0.83245   0.81149   0.51315   1.000
    C110    C    0.29003   0.90883   0.50543   1.000
    C111    C    0.78897   0.90855   0.50502   1.000
    C112    C    0.18652   0.92606   0.51946   1.000
    C113    C    0.68582   0.92653   0.51940   1.000
    C114    C    0.35191   0.98346   0.48588   1.000
    C115    C    0.85154   0.98257   0.48527   1.000
    C116    C    0.33449   0.57857   0.40042   1.000
    C117    C    0.83438   0.57883   0.40041   1.000
    C118    C    0.29454   0.63646   0.34160   1.000
    C119    C    0.79467   0.63687   0.34164   1.000
    C120    C    0.36204   0.69454   0.30868   1.000
    C121    C    0.86234   0.69499   0.30892   1.000
    C122    C    0.32419   0.74669   0.25321   1.000
    C123    C    0.82472   0.74725   0.25347   1.000
    C124    C    0.21841   0.74020   0.22890   1.000
    C125    C    0.71902   0.74074   0.22901   1.000
    C126    C    0.15091   0.68218   0.26184   1.000
    C127    C    0.65132   0.68268   0.26176   1.000
    C128    C    0.18829   0.63190   0.31806   1.000
    C129    C    0.68852   0.63224   0.31792   1.000
    C130    C    0.17731   0.79194   0.16707   1.000
    C131    C    0.67815   0.79261   0.16725   1.000
    C132    C    0.33380   0.68911   0.01413   1.000
    C133    C    0.83229   0.68902   0.01426   1.000
    C134    C    0.29044   0.59177   0.00558   1.000
    C135    C    0.78910   0.59159   0.00588   1.000
    C136    C    0.18712   0.57283   0.01949   1.000
    C137    C    0.68585   0.57259   0.01990   1.000
    C138    C    0.35323   0.51836   0.98569   1.000
    C139    C    0.85194   0.51816   0.98605   1.000
    C140    C    0.16434   0.07839   0.09969   1.000
    C141    C    0.66436   0.07879   0.09961   1.000
    C142    C    0.20403   0.13576   0.15867   1.000
    C143    C    0.70392   0.13640   0.15852   1.000
    C144    C    0.13618   0.19290   0.19166   1.000
    C145    C    0.63603   0.19377   0.19129   1.000
    C146    C    0.17369   0.24476   0.24720   1.000
    C147    C    0.67346   0.24584   0.24677   1.000
    C148    C    0.27945   0.23870   0.27158   1.000
    C149    C    0.77922   0.24000   0.27118   1.000
    C150    C    0.34727   0.18147   0.23865   1.000
    C151    C    0.84709   0.18257   0.23845   1.000
    C152    C    0.31021   0.13153   0.18232   1.000
    C153    C    0.81010   0.13235   0.18223   1.000
    C154    C    0.32042   0.29026   0.33337   1.000
    C155    C    0.81983   0.29177   0.33296   1.000
    C156    C    0.16379   0.18814   0.48671   1.000
    C157    C    0.66544   0.18843   0.48670   1.000
    C158    C    0.20789   0.09115   0.49472   1.000
    C159    C    0.70892   0.09135   0.49472   1.000
    C160    C    0.31141   0.07392   0.48071   1.000
    C161    C    0.81206   0.07336   0.48030   1.000
    C162    C    0.14601   0.01652   0.51429   1.000
    C163    C    0.64634   0.01732   0.51444   1.000
    O164    O    0.23185   0.45672   0.56344   1.000
    O165    O    0.73240   0.45651   0.56377   1.000
    O166    O    0.06535   0.43268   0.58825   1.000
    O167    O    0.56563   0.43219   0.58839   1.000
    O168    O    0.41522   0.22979   0.85509   1.000
    O169    O    0.91618   0.23014   0.85532   1.000
    O170    O    0.26240   0.14856   0.85794   1.000
    O171    O    0.76370   0.14842   0.85810   1.000
    O172    O    0.23105   0.24320   0.98897   1.000
    O173    O    0.72942   0.24300   0.98902   1.000
    O174    O    0.06691   0.30470   0.97511   1.000
    O175    O    0.56539   0.30473   0.97515   1.000
    O176    O    0.09881   0.62021   0.50691   1.000
    O177    O    0.59841   0.61798   0.50688   1.000
    O178    O    0.40979   0.58362   0.56542   1.000
    O179    O    0.90985   0.58379   0.56522   1.000
    O180    O    0.26634   0.95527   0.93670   1.000
    O181    O    0.76607   0.95546   0.93646   1.000
    O182    O    0.43289   0.93373   0.91143   1.000
    O183    O    0.73786   0.65045   0.64162   1.000
    O184    O    0.27106   0.74343   0.50883   1.000
    O185    O    0.76921   0.74320   0.50890   1.000
    O186    O    0.43462   0.80645   0.52506   1.000
    O187    O    0.93293   0.80615   0.52473   1.000
    O188    O    0.40037   0.11873   0.99330   1.000
    O189    O    0.90073   0.11882   0.99291   1.000
    O190    O    0.08958   0.08245   0.93430   1.000
    O191    O    0.58898   0.08266   0.93441   1.000
    O192    O    0.26610   0.54324   0.43650   1.000
    O193    O    0.76572   0.54348   0.43629   1.000
    O194    O    0.43270   0.56723   0.41186   1.000
    O195    O    0.93263   0.56764   0.41188   1.000
    O196    O    0.08334   0.76997   0.14472   1.000
    O197    O    0.58392   0.77121   0.14500   1.000
    O198    O    0.23602   0.85140   0.14198   1.000
    O199    O    0.73738   0.85144   0.14190   1.000
    O200    O    0.27036   0.75698   0.01091   1.000
    O201    O    0.76875   0.75684   0.01102   1.000
    O202    O    0.43438   0.69526   0.02486   1.000
    O203    O    0.93288   0.69528   0.02485   1.000
    O204    O    0.39911   0.37973   0.49320   1.000
    O205    O    0.89947   0.38195   0.49324   1.000
    O206    O    0.08811   0.41630   0.43469   1.000
    O207    O    0.58809   0.41623   0.43490   1.000
    O208    O    0.23289   0.04453   0.06320   1.000
    O209    O    0.73316   0.04481   0.06341   1.000
    O210    O    0.06624   0.06610   0.08847   1.000
    O211    O    0.56630   0.06619   0.08841   1.000
    O212    O    0.41434   0.26834   0.35575   1.000
    O213    O    0.91441   0.27158   0.35499   1.000
    O214    O    0.26170   0.34933   0.35840   1.000
    O215    O    0.76001   0.34954   0.35838   1.000
    O216    O    0.22682   0.25655   0.49124   1.000
    O217    O    0.72869   0.25670   0.49100   1.000
    O218    O    0.06329   0.19350   0.47498   1.000
    O219    O    0.56495   0.19380   0.47524   1.000
    O220    O    0.09888   0.88109   0.00698   1.000
    O221    O    0.59893   0.88164   0.00660   1.000
    O222    O    0.41019   0.91727   0.06574   1.000
    O223    O    0.90992   0.91753   0.06536   1.000
loop_
    _geom_bond_atom_site_label_1
    _geom_bond_atom_site_label_2
    _geom_bond_distance
    _geom_bond_site_symmetry_2
    _ccdc_geom_bond_type
    C134   C132      1.49834      .   S
    C134   C136      1.40350      .   S
    C134   C138      1.40252  1_554   S
    C135   C133      1.49853      .   S
    C135   C137      1.40337      .   S
    C135   C139      1.40272  1_554   S
    O221   H61       0.97472  1_554   S
    O220   H60       0.97578  1_554   S
    O200   C132      1.26324      .   S
    O201   C133      1.26344      .   S
    C90    C136      1.39160      .   S
    C90    H10       1.08783      .   S
    C90    C86       1.40273  1_554   S
    C132   O202      1.29128      .   S
    C133   O203      1.29120      .   S
    C91    C137      1.39151      .   S
    C91    H11       1.08778      .   S
    C91    C87       1.40253  1_554   S
    C136   H40       1.08801      .   S
    C137   H41       1.08792      .   S
    H29    O189      0.97575  1_554   S
    H28    O188      0.97566  1_554   S
    O208   C140      1.29037      .   S
    O209   C141      1.28968      .   S
    O223   H63       0.97525      .   S
    O222   H62       0.97516      .   S
    O211   C141      1.26968      .   S
    O210   C140      1.26969      .   S
    C141   C143      1.49660      .   S
    C140   C142      1.49622      .   S
    O199   C131      1.26708      .   S
    O198   C130      1.26649      .   S
    O196   C130      1.28663      .   S
    O197   C131      1.28710      .   S
    H54    C152      1.08880      .   S
    H55    C153      1.08879      .   S
    C143   C153      1.40347      .   S
    C143   C145      1.40380      .   S
    C142   C152      1.40333      .   S
    C142   C144      1.40386      .   S
    C130   C124      1.50288      .   S
    C131   C125      1.50181      .   S
    H49    C145      1.08874      .   S
    H48    C144      1.08875      .   S
    C153   C151      1.38948      .   S
    C152   C150      1.38929      .   S
    C145   C147      1.39314      .   S
    C144   C146      1.39278      .   S
    H34    C122      1.09019      .   S
    H35    C123      1.08931      .   S
    C124   C122      1.40346      .   S
    C124   C126      1.40382      .   S
    C125   C123      1.40333      .   S
    C125   C127      1.40373      .   S
    C151   H53       1.08810      .   S
    C151   C149      1.40371      .   S
    C150   H52       1.08804      .   S
    C150   C148      1.40376      .   S
    H37    C127      1.08809      .   S
    H36    C126      1.08806      .   S
    C147   C149      1.40344      .   S
    C147   H51       1.08921      .   S
    C146   C148      1.40336      .   S
    C146   H50       1.08963      .   S
    C122   C120      1.39352      .   S
    C123   C121      1.39323      .   S
    C127   C129      1.38930      .   S
    C126   C128      1.38975      .   S
    C149   C155      1.50212      .   S
    C148   C154      1.50213      .   S
    C120   H32       1.08879      .   S
    C120   C118      1.40400      .   S
    C121   H33       1.08871      .   S
    C121   C119      1.40382      .   S
    C129   C119      1.40338      .   S
    C129   H39       1.08886      .   S
    C128   C118      1.40356      .   S
    C128   H38       1.08883      .   S
    C155   O213      1.28684      .   S
    C155   O215      1.26635      .   S
    C154   O212      1.28671      .   S
    C154   O214      1.26603      .   S
    C118   C116      1.49707      .   S
    C119   C117      1.49664      .   S
    H46    O206      0.97536      .   S
    H47    O207      0.97506      .   S
    C117   O195      1.27055      .   S
    C117   O193      1.28913      .   S
    C116   O194      1.27027      .   S
    C116   O192      1.28896      .   S
    H13    O177      0.97599      .   S
    H12    O176      0.97592      .   S
    H57    C161      1.08830      .   S
    H56    C160      1.08775      .   S
    H27    C115      1.08765      .   S
    H26    C114      1.08774      .   S
    O218   C156      1.29148      .   S
    O219   C157      1.29094      .   S
    C161   C115      1.39104  1_545   S
    C161   C159      1.40293      .   S
    C160   C114      1.39159  1_545   S
    C160   C158      1.40340      .   S
    C115   C111      1.40236      .   S
    C114   C110      1.40241      .   S
    C157   O217      1.26362      .   S
    C157   C159      1.49631      .   S
    C156   O216      1.26342      .   S
    C156   C158      1.49804      .   S
    O204   H44       0.97595      .   S
    O205   H45       0.97595      .   S
    C159   C163      1.40226      .   S
    C158   C162      1.40245      .   S
    C111   C109      1.49630      .   S
    C111   C113      1.40283      .   S
    C110   C108      1.49796      .   S
    C110   C112      1.40337      .   S
    O184   C108      1.26344      .   S
    O185   C109      1.26369      .   S
    C109   O187      1.29091      .   S
    C108   O186      1.29152      .   S
    C162   C112      1.39159  1_545   S
    C162   H58       1.08772      .   S
    C163   C113      1.39098  1_545   S
    C163   H59       1.08764      .   S
    C113   H25       1.08776      .   S
    C112   H24       1.08780      .   S
    O164   C64       1.28899      .   S
    O165   C65       1.28925      .   S
    O179   H15       0.97525      .   S
    O178   H14       0.97522      .   S
    O166   C64       1.27017      .   S
    O167   C65       1.27055      .   S
    C64    C66       1.49722      .   S
    C65    C67       1.49756      .   S
    O83    C106      1.26622      .   S
    O183   C107      1.26635      .   S
    O81    C106      1.28678      .   S
    O82    C107      1.28686      .   S
    H6     C76       1.08881      .   S
    H7     C77       1.08942      .   S
    C66    C76       1.40355      .   S
    C66    C68       1.40392      .   S
    C67    C77       1.40353      .   S
    C67    C69       1.40384      .   S
    C106   C100      1.50225      .   S
    C107   C101      1.50237      .   S
    H0     C68       1.08876      .   S
    H1     C69       1.08877      .   S
    C76    C74       1.38970      .   S
    C77    C75       1.38962      .   S
    C68    C70       1.39332      .   S
    C69    C71       1.39356      .   S
    H18    C98       1.08956      .   S
    H19    C99       1.08926      .   S
    C100   C98       1.40331      .   S
    C100   C102      1.40290      .   S
    C101   C99       1.40351      .   S
    C101   C103      1.40368      .   S
    C74    H4        1.08812      .   S
    C74    C72       1.40391      .   S
    C75    H5        1.08810      .   S
    C75    C73       1.40368      .   S
    H21    C103      1.08807      .   S
    H20    C102      1.08763      .   S
    C70    C72       1.40351      .   S
    C70    H2        1.08931      .   S
    C71    C73       1.40346      .   S
    C71    H3        1.08927      .   S
    C98    C96       1.39319      .   S
    C99    C97       1.39322      .   S
    C102   C104      1.39051      .   S
    C103   C105      1.38963      .   S
    C72    C78       1.50259      .   S
    C73    C79       1.50277      .   S
    C96    H16       1.08876      .   S
    C96    C94       1.40385      .   S
    C97    H17       1.08875      .   S
    C97    C95       1.40373      .   S
    C105   C95       1.40348      .   S
    C105   H23       1.08870      .   S
    C104   C94       1.40344      .   S
    C104   H22       1.08884      .   S
    C78    O168      1.28682      .   S
    C78    O170      1.26666      .   S
    C79    O169      1.28673      .   S
    C79    O171      1.26635      .   S
    C94    C92       1.49595      .   S
    C95    C93       1.49702      .   S
    H30    O190      0.97379      .   S
    H31    O191      0.97519      .   S
    C93    O80       1.26984      .   S
    C93    O181      1.28971      .   S
    C92    O182      1.26986      .   S
    C92    O180      1.28930      .   S
    H8     C88       1.08791      .   S
    H9     C89       1.08804      .   S
    H42    C138      1.08771      .   S
    H43    C139      1.08786      .   S
    O174   C84       1.29102      .   S
    O175   C85       1.29134      .   S
    C88    C138      1.39147      .   S
    C88    C86       1.40336      .   S
    C89    C139      1.39163      .   S
    C89    C87       1.40346      .   S
    C84    O172      1.26354      .   S
    C84    C86       1.49839      .   S
    C85    O173      1.26322      .   S
    C85    C87       1.49843      .   S
