# CIF file generated by openbabel 2.4.90, see http://openbabel.sf.net
data_I
_chemical_name_common ''
_cell_length_a 14.01
_cell_length_b 20.56
_cell_length_c 20.561
_cell_angle_alpha 89.85
_cell_angle_beta 93.673
_cell_angle_gamma 86.353
_space_group_name_H-M_alt 'P 1'
_space_group_name_Hall 'P 1'
loop_
    _symmetry_equiv_pos_as_xyz
    x,y,z
loop_
    _atom_site_label
    _atom_site_type_symbol
    _atom_site_fract_x
    _atom_site_fract_y
    _atom_site_fract_z
    _atom_site_occupancy
    H0      H    0.45506   0.17069   0.10863   1.000
    H1      H    0.45504   0.17069   0.60864   1.000
    H2      H    0.45505   0.67070   0.10863   1.000
    H3      H    0.45505   0.67070   0.60864   1.000
    H4      H    0.95505   0.17069   0.10863   1.000
    H5      H    0.95505   0.17069   0.60864   1.000
    H6      H    0.95506   0.67070   0.10863   1.000
    H7      H    0.95505   0.67070   0.60864   1.000
    H8      H    0.38308   0.36407   0.15021   1.000
    H9      H    0.38307   0.36407   0.65022   1.000
    H10     H    0.38308   0.86408   0.15021   1.000
    H11     H    0.38307   0.86408   0.65022   1.000
    H12     H    0.88309   0.36407   0.15021   1.000
    H13     H    0.88308   0.36407   0.65022   1.000
    H14     H    0.88309   0.86408   0.15021   1.000
    H15     H    0.88308   0.86408   0.65022   1.000
    H16     H    0.39980   0.18720   0.48959   1.000
    H17     H    0.39978   0.18720   0.98960   1.000
    H18     H    0.39980   0.68720   0.48959   1.000
    H19     H    0.39979   0.68721   0.98960   1.000
    H20     H    0.89979   0.18719   0.48959   1.000
    H21     H    0.89979   0.18720   0.98960   1.000
    H22     H    0.89980   0.68720   0.48959   1.000
    H23     H    0.89979   0.68720   0.98960   1.000
    H24     H    0.32081   0.38727   0.03181   1.000
    H25     H    0.32082   0.38728   0.53182   1.000
    H26     H    0.32083   0.88729   0.03180   1.000
    H27     H    0.32082   0.88728   0.53182   1.000
    H28     H    0.82084   0.38728   0.03180   1.000
    H29     H    0.82081   0.38727   0.53182   1.000
    H30     H    0.82083   0.88728   0.03180   1.000
    H31     H    0.82083   0.88729   0.53180   1.000
    H32     H    0.29498   0.10864   0.17070   1.000
    H33     H    0.29498   0.10864   0.67071   1.000
    H34     H    0.29499   0.60865   0.17070   1.000
    H35     H    0.29497   0.60865   0.67071   1.000
    H36     H    0.79498   0.10864   0.17070   1.000
    H37     H    0.79497   0.10864   0.67071   1.000
    H38     H    0.79499   0.60865   0.17070   1.000
    H39     H    0.79498   0.60865   0.67071   1.000
    H40     H    0.36693   0.15024   0.36410   1.000
    H41     H    0.36693   0.15024   0.86411   1.000
    H42     H    0.36693   0.65025   0.36410   1.000
    H43     H    0.36693   0.65024   0.86411   1.000
    H44     H    0.86694   0.15024   0.36410   1.000
    H45     H    0.86693   0.15024   0.86411   1.000
    H46     H    0.86694   0.65025   0.36410   1.000
    H47     H    0.86694   0.65025   0.86411   1.000
    H48     H    0.35027   0.48962   0.18722   1.000
    H49     H    0.35027   0.48962   0.68722   1.000
    H50     H    0.35027   0.98963   0.18721   1.000
    H51     H    0.35026   0.98963   0.68723   1.000
    H52     H    0.85028   0.48962   0.18721   1.000
    H53     H    0.85027   0.48962   0.68723   1.000
    H54     H    0.85028   0.98963   0.18721   1.000
    H55     H    0.85027   0.98963   0.68720   1.000
    H56     H    0.42918   0.03185   0.38730   1.000
    H57     H    0.42917   0.03185   0.88734   1.000
    H58     H    0.42918   0.53186   0.38733   1.000
    H59     H    0.42921   0.53186   0.88733   1.000
    H60     H    0.92920   0.03186   0.38732   1.000
    H61     H    0.92920   0.03186   0.88733   1.000
    H62     H    0.92920   0.53186   0.38732   1.000
    H63     H    0.92920   0.53186   0.88733   1.000
    H64     H    0.04496   0.32932   0.39138   1.000
    H65     H    0.04496   0.32932   0.89139   1.000
    H66     H    0.04497   0.82933   0.39138   1.000
    H67     H    0.04496   0.82933   0.89139   1.000
    H68     H    0.54497   0.32932   0.39138   1.000
    H69     H    0.54495   0.32932   0.89139   1.000
    H70     H    0.54497   0.82933   0.39138   1.000
    H71     H    0.54497   0.82933   0.89139   1.000
    H72     H    0.11692   0.13594   0.34980   1.000
    H73     H    0.11692   0.13594   0.84981   1.000
    H74     H    0.11693   0.63595   0.34979   1.000
    H75     H    0.11693   0.63595   0.84980   1.000
    H76     H    0.61693   0.13594   0.34979   1.000
    H77     H    0.61693   0.13594   0.84981   1.000
    H78     H    0.61694   0.63595   0.34979   1.000
    H79     H    0.61693   0.63595   0.84980   1.000
    H80     H    0.10022   0.31281   0.01042   1.000
    H81     H    0.10022   0.31281   0.51043   1.000
    H82     H    0.10023   0.81282   0.01042   1.000
    H83     H    0.10022   0.81281   0.51043   1.000
    C84     C    0.89284   0.50148   0.78905   1.000
    C85     C    0.32566   0.08817   0.21700   1.000
    C86     C    0.32565   0.08817   0.71702   1.000
    C87     C    0.32566   0.58818   0.21700   1.000
    H88     H    0.60023   0.31281   0.01042   1.000
    H89     H    0.60022   0.31281   0.51043   1.000
    H90     H    0.60023   0.81281   0.01042   1.000
    H91     H    0.60022   0.81282   0.51043   1.000
    H92     H    0.17918   0.11273   0.46820   1.000
    H93     H    0.17917   0.11273   0.96821   1.000
    H94     H    0.17918   0.61273   0.46800   1.000
    H95     H    0.17919   0.61274   0.96820   1.000
    H96     H    0.67918   0.11273   0.46820   1.000
    H97     H    0.67919   0.11273   0.96821   1.000
    H98     H    0.67920   0.61274   0.46819   1.000
    H99     H    0.67919   0.61274   0.96820   1.000
    H100    H    0.20503   0.39136   0.32930   1.000
    H101    H    0.20503   0.39136   0.82931   1.000
    H102    H    0.20503   0.89137   0.32930   1.000
    H103    H    0.20503   0.89137   0.82931   1.000
    H104    H    0.70504   0.39136   0.32930   1.000
    H105    H    0.70503   0.39136   0.82931   1.000
    H106    H    0.70504   0.89137   0.32930   1.000
    H107    H    0.70504   0.89137   0.82931   1.000
    H108    H    0.13308   0.34977   0.13590   1.000
    H109    H    0.13306   0.34977   0.63590   1.000
    H110    H    0.13308   0.84978   0.13590   1.000
    H111    H    0.13307   0.84978   0.63591   1.000
    H112    H    0.63308   0.34977   0.13590   1.000
    H113    H    0.63308   0.34977   0.63591   1.000
    H114    H    0.63309   0.84978   0.13590   1.000
    H115    H    0.63308   0.84978   0.63591   1.000
    C116    C    0.11711   0.17211   0.38840   1.000
    C117    C    0.11710   0.17211   0.88841   1.000
    C118    C    0.11710   0.67212   0.38840   1.000
    C119    C    0.11711   0.67212   0.88841   1.000
    C120    C    0.61711   0.17211   0.38840   1.000
    H121    H    0.14975   0.01039   0.31279   1.000
    H122    H    0.14974   0.01038   0.81280   1.000
    H123    H    0.14974   0.51039   0.31279   1.000
    H124    H    0.14975   0.51039   0.81280   1.000
    H125    H    0.64975   0.01038   0.31279   1.000
    H126    H    0.64975   0.01038   0.81280   1.000
    H127    H    0.64975   0.51040   0.31279   1.000
    H128    H    0.64975   0.51039   0.81280   1.000
    H129    H    0.07082   0.46815   0.11268   1.000
    H130    H    0.07081   0.46815   0.61270   1.000
    H131    H    0.07082   0.96816   0.11268   1.000
    H132    H    0.07081   0.96817   0.61269   1.000
    H133    H    0.57082   0.46815   0.11268   1.000
    H134    H    0.57082   0.46816   0.61269   1.000
    H135    H    0.57082   0.96816   0.11268   1.000
    H136    H    0.57082   0.96816   0.61200   1.000
    C137    C    0.35719   0.28900   0.00144   1.000
    C138    C    0.35720   0.28901   0.50145   1.000
    C139    C    0.35721   0.78901   0.00144   1.000
    C140    C    0.35720   0.78901   0.50145   1.000
    C141    C    0.85721   0.28901   0.00144   1.000
    C142    C    0.85719   0.28900   0.50145   1.000
    C143    C    0.85719   0.78901   0.00144   1.000
    C144    C    0.85720   0.78901   0.50145   1.000
    C145    C    0.42436   0.21698   0.08816   1.000
    C146    C    0.42436   0.21698   0.58817   1.000
    C147    C    0.42437   0.71699   0.08810   1.000
    C148    C    0.42437   0.71699   0.58810   1.000
    C149    C    0.92437   0.21698   0.08810   1.000
    C150    C    0.92436   0.21698   0.58810   1.000
    C151    C    0.92436   0.71699   0.08816   1.000
    C152    C    0.92437   0.71699   0.58810   1.000
    C153    C    0.38290   0.32789   0.11160   1.000
    C154    C    0.38290   0.32789   0.61160   1.000
    C155    C    0.38291   0.82790   0.11160   1.000
    C156    C    0.38290   0.82790   0.61160   1.000
    C157    C    0.88291   0.32790   0.11160   1.000
    C158    C    0.88289   0.32789   0.61160   1.000
    C159    C    0.88290   0.82790   0.11160   1.000
    C160    C    0.88290   0.82790   0.61161   1.000
    C161    C    0.33040   0.30290   0.43002   1.000
    C162    C    0.33037   0.30290   0.93004   1.000
    C163    C    0.33039   0.80291   0.43002   1.000
    C164    C    0.33039   0.80291   0.93003   1.000
    C165    C    0.83037   0.30290   0.43000   1.000
    C166    C    0.83040   0.30291   0.93003   1.000
    C167    C    0.83041   0.80291   0.43002   1.000
    C168    C    0.83039   0.80291   0.93003   1.000
    C169    C    0.39388   0.22749   0.02351   1.000
    C170    C    0.39389   0.22749   0.52352   1.000
    C171    C    0.39389   0.72750   0.02351   1.000
    C172    C    0.39388   0.72750   0.52352   1.000
    C173    C    0.89390   0.22750   0.02350   1.000
    C174    C    0.89388   0.22749   0.52352   1.000
    C175    C    0.89390   0.72750   0.02351   1.000
    C176    C    0.89390   0.72750   0.52350   1.000
    C177    C    0.35020   0.33901   0.04742   1.000
    C178    C    0.35021   0.33902   0.54743   1.000
    C179    C    0.35022   0.83902   0.04742   1.000
    C180    C    0.35021   0.83902   0.54743   1.000
    C181    C    0.85023   0.33902   0.04742   1.000
    C182    C    0.85020   0.33901   0.54743   1.000
    C183    C    0.85022   0.83902   0.04742   1.000
    C184    C    0.85022   0.83903   0.54743   1.000
    C185    C    0.39283   0.00147   0.28904   1.000
    C186    C    0.39283   0.00147   0.78906   1.000
    C187    C    0.39283   0.50148   0.28904   1.000
    C188    C    0.39285   0.50148   0.78905   1.000
    C189    C    0.89284   0.00147   0.28904   1.000
    C190    C    0.89286   0.00147   0.78905   1.000
    C191    C    0.89285   0.50148   0.28904   1.000
    O192    O    0.96664   0.41415   0.85458   1.000
    O193    O    0.96665   0.91416   0.35457   1.000
    O194    O    0.96663   0.91417   0.85459   1.000
    O195    O    0.29202   0.19156   0.25811   1.000
    O196    O    0.29201   0.19156   0.75812   1.000
    O197    O    0.29202   0.69156   0.25811   1.000
    O198    O    0.29201   0.69156   0.75813   1.000
    O199    O    0.79202   0.19156   0.25810   1.000
    C200    C    0.32566   0.58818   0.71701   1.000
    C201    C    0.82566   0.08817   0.21700   1.000
    C202    C    0.82567   0.08817   0.71701   1.000
    C203    C    0.82567   0.58818   0.21700   1.000
    C204    C    0.82566   0.58818   0.71701   1.000
    C205    C    0.36710   0.11163   0.32793   1.000
    C206    C    0.36710   0.11163   0.82794   1.000
    C207    C    0.36711   0.61164   0.32793   1.000
    C208    C    0.36712   0.61164   0.82793   1.000
    C209    C    0.86711   0.11163   0.32792   1.000
    C210    C    0.86712   0.11163   0.82793   1.000
    C211    C    0.86712   0.61164   0.32792   1.000
    C212    C    0.86711   0.61164   0.82790   1.000
    C213    C    0.41961   0.43005   0.30294   1.000
    C214    C    0.41964   0.43006   0.80294   1.000
    C215    C    0.41962   0.93006   0.30294   1.000
    C216    C    0.41960   0.93006   0.80290   1.000
    C217    C    0.91963   0.43005   0.30294   1.000
    C218    C    0.91962   0.43005   0.80295   1.000
    C219    C    0.91963   0.93006   0.30290   1.000
    C220    C    0.91962   0.93006   0.80295   1.000
    C221    C    0.35617   0.02353   0.22752   1.000
    C222    C    0.35615   0.02353   0.72753   1.000
    C223    C    0.35616   0.52354   0.22752   1.000
    C224    C    0.35617   0.52354   0.72753   1.000
    C225    C    0.85617   0.02353   0.22752   1.000
    C226    C    0.85617   0.02353   0.72753   1.000
    C227    C    0.85617   0.52354   0.22752   1.000
    C228    C    0.85616   0.52354   0.72753   1.000
    C229    C    0.39981   0.04746   0.33905   1.000
    C230    C    0.39979   0.04746   0.83907   1.000
    C231    C    0.39980   0.54747   0.33906   1.000
    C232    C    0.39983   0.54747   0.83906   1.000
    C233    C    0.89982   0.04746   0.33905   1.000
    C234    C    0.89982   0.04746   0.83906   1.000
    C235    C    0.89982   0.54747   0.33905   1.000
    C236    C    0.89981   0.54747   0.83906   1.000
    C237    C    0.14282   0.21100   0.49856   1.000
    C238    C    0.14280   0.21100   0.99850   1.000
    C239    C    0.14280   0.71101   0.49850   1.000
    C240    C    0.14281   0.71101   0.99857   1.000
    C241    C    0.64280   0.21100   0.49850   1.000
    C242    C    0.64282   0.21101   0.99857   1.000
    C243    C    0.64281   0.71101   0.49856   1.000
    C244    C    0.64281   0.71101   0.99857   1.000
    C245    C    0.07565   0.28302   0.41185   1.000
    C246    C    0.07564   0.28303   0.91186   1.000
    C247    C    0.07564   0.78303   0.41185   1.000
    C248    C    0.07565   0.78304   0.91186   1.000
    C249    C    0.57565   0.28302   0.41185   1.000
    C250    C    0.57565   0.28303   0.91186   1.000
    C251    C    0.57565   0.78303   0.41185   1.000
    C252    C    0.57565   0.78303   0.91186   1.000
    C253    C    0.61711   0.17212   0.88841   1.000
    C254    C    0.61712   0.67212   0.38840   1.000
    C255    C    0.61711   0.67212   0.88841   1.000
    C256    C    0.16961   0.19710   0.06998   1.000
    C257    C    0.16960   0.19710   0.56999   1.000
    C258    C    0.16962   0.69711   0.06998   1.000
    C259    C    0.16960   0.69711   0.56999   1.000
    C260    C    0.66962   0.19710   0.06998   1.000
    C261    C    0.66960   0.19710   0.56999   1.000
    C262    C    0.66961   0.69711   0.06998   1.000
    C263    C    0.66960   0.69711   0.56999   1.000
    C264    C    0.10612   0.27251   0.47650   1.000
    C265    C    0.10612   0.27251   0.97651   1.000
    C266    C    0.10613   0.77252   0.47650   1.000
    C267    C    0.10613   0.77252   0.97651   1.000
    C268    C    0.60613   0.27251   0.47650   1.000
    C269    C    0.60613   0.27252   0.97651   1.000
    C270    C    0.60613   0.77252   0.47650   1.000
    C271    C    0.60613   0.77252   0.97651   1.000
    C272    C    0.14979   0.16099   0.45258   1.000
    C273    C    0.14979   0.16099   0.95259   1.000
    C274    C    0.14979   0.66099   0.45258   1.000
    C275    C    0.14980   0.66100   0.95259   1.000
    C276    C    0.64979   0.16099   0.45258   1.000
    C277    C    0.64980   0.16099   0.95259   1.000
    C278    C    0.64981   0.66100   0.45258   1.000
    C279    C    0.64980   0.66100   0.95259   1.000
    C280    C    0.10717   0.49854   0.21090   1.000
    C281    C    0.10716   0.49854   0.71098   1.000
    C282    C    0.10717   0.99854   0.21090   1.000
    C283    C    0.10716   0.99854   0.71098   1.000
    C284    C    0.60716   0.49854   0.21097   1.000
    C285    C    0.60717   0.49854   0.71098   1.000
    C286    C    0.60716   0.99854   0.21097   1.000
    C287    C    0.60717   0.99855   0.71098   1.000
    C288    C    0.17435   0.41184   0.28300   1.000
    C289    C    0.17434   0.41184   0.78301   1.000
    C290    C    0.17435   0.91184   0.28300   1.000
    C291    C    0.17434   0.91184   0.78300   1.000
    C292    C    0.67435   0.41184   0.28300   1.000
    C293    C    0.67435   0.41184   0.78301   1.000
    C294    C    0.67435   0.91184   0.28300   1.000
    C295    C    0.67435   0.91184   0.78301   1.000
    C296    C    0.13290   0.38838   0.17208   1.000
    C297    C    0.13289   0.38838   0.67209   1.000
    C298    C    0.13290   0.88838   0.17208   1.000
    C299    C    0.13289   0.88838   0.67209   1.000
    C300    C    0.63290   0.38838   0.17208   1.000
    C301    C    0.63290   0.38838   0.67209   1.000
    C302    C    0.63290   0.88838   0.17208   1.000
    C303    C    0.63290   0.88838   0.67209   1.000
    C304    C    0.08039   0.06995   0.19707   1.000
    C305    C    0.08038   0.06995   0.69708   1.000
    C306    C    0.08038   0.56996   0.19707   1.000
    C307    C    0.08038   0.56996   0.69708   1.000
    C308    C    0.58039   0.06995   0.19707   1.000
    C309    C    0.58037   0.06995   0.69700   1.000
    C310    C    0.58038   0.56996   0.19707   1.000
    C311    C    0.58037   0.56996   0.69708   1.000
    C312    C    0.14385   0.47647   0.27249   1.000
    C313    C    0.14385   0.47647   0.77250   1.000
    C314    C    0.14385   0.97648   0.27249   1.000
    C315    C    0.14385   0.97648   0.77250   1.000
    C316    C    0.64385   0.47647   0.27249   1.000
    C317    C    0.64385   0.47647   0.77250   1.000
    C318    C    0.64385   0.97648   0.27249   1.000
    C319    C    0.64385   0.97648   0.77250   1.000
    C320    C    0.10020   0.45255   0.16095   1.000
    C321    C    0.10019   0.45255   0.66096   1.000
    C322    C    0.10020   0.95256   0.16095   1.000
    C323    C    0.10020   0.95256   0.66096   1.000
    C324    C    0.60020   0.45255   0.16095   1.000
    C325    C    0.60020   0.45255   0.66096   1.000
    C326    C    0.60021   0.95256   0.16095   1.000
    C327    C    0.60020   0.95256   0.66096   1.000
    N328    N    0.42086   0.26751   0.13071   1.000
    N329    N    0.42087   0.26751   0.63072   1.000
    N330    N    0.42088   0.76752   0.13071   1.000
    N331    N    0.42087   0.76752   0.63072   1.000
    N332    N    0.92088   0.26751   0.13071   1.000
    N333    N    0.92086   0.26751   0.63072   1.000
    N334    N    0.92087   0.76752   0.13071   1.000
    N335    N    0.92087   0.76752   0.63072   1.000
    N336    N    0.32915   0.13073   0.26753   1.000
    N337    N    0.32914   0.13073   0.76754   1.000
    N338    N    0.32915   0.63074   0.26753   1.000
    N339    N    0.32916   0.63074   0.76754   1.000
    N340    N    0.82915   0.13073   0.26753   1.000
    N341    N    0.82917   0.13073   0.76754   1.000
    N342    N    0.82916   0.63074   0.26753   1.000
    N343    N    0.82915   0.63074   0.76754   1.000
    N344    N    0.07914   0.23250   0.36930   1.000
    N345    N    0.07913   0.23250   0.86931   1.000
    N346    N    0.07913   0.73250   0.36930   1.000
    N347    N    0.07914   0.73251   0.86931   1.000
    N348    N    0.57913   0.23249   0.36930   1.000
    N349    N    0.57914   0.23250   0.86931   1.000
    N350    N    0.57914   0.73251   0.36930   1.000
    N351    N    0.57914   0.73251   0.86931   1.000
    N352    N    0.17085   0.36928   0.23247   1.000
    N353    N    0.17084   0.36928   0.73249   1.000
    N354    N    0.17086   0.86929   0.23247   1.000
    N355    N    0.17084   0.86929   0.73249   1.000
    N356    N    0.67085   0.36928   0.23240   1.000
    N357    N    0.67085   0.36928   0.73240   1.000
    N358    N    0.67085   0.86929   0.23248   1.000
    N359    N    0.67085   0.86929   0.73249   1.000
    O360    O    0.28330   0.35450   0.41410   1.000
    O361    O    0.28332   0.35451   0.91413   1.000
    O362    O    0.28331   0.85451   0.41412   1.000
    O363    O    0.28330   0.85451   0.91413   1.000
    O364    O    0.78333   0.35451   0.41412   1.000
    O365    O    0.78330   0.35450   0.91410   1.000
    O366    O    0.78331   0.85451   0.41410   1.000
    O367    O    0.78331   0.85452   0.91410   1.000
    O368    O    0.45798   0.25811   0.19150   1.000
    O369    O    0.45797   0.25810   0.69157   1.000
    O370    O    0.45798   0.75811   0.19150   1.000
    O371    O    0.45797   0.75812   0.69157   1.000
    O372    O    0.95798   0.25810   0.19150   1.000
    O373    O    0.95797   0.25811   0.69157   1.000
    O374    O    0.95799   0.75812   0.19155   1.000
    O375    O    0.95798   0.75811   0.69150   1.000
    O376    O    0.36286   0.25818   0.39126   1.000
    O377    O    0.36287   0.25819   0.89128   1.000
    O378    O    0.36287   0.75819   0.39120   1.000
    O379    O    0.36286   0.75819   0.89127   1.000
    O380    O    0.86287   0.25819   0.39127   1.000
    O381    O    0.86285   0.25818   0.89127   1.000
    O382    O    0.86286   0.75819   0.39126   1.000
    O383    O    0.86286   0.75819   0.89120   1.000
    O384    O    0.46666   0.41415   0.35457   1.000
    O385    O    0.46662   0.41415   0.85459   1.000
    O386    O    0.46665   0.91416   0.35457   1.000
    O387    O    0.46665   0.91417   0.85458   1.000
    O388    O    0.96665   0.41415   0.35457   1.000
    O389    O    0.79200   0.19155   0.75813   1.000
    O390    O    0.79202   0.69156   0.25811   1.000
    O391    O    0.79201   0.69156   0.75812   1.000
    O392    O    0.38718   0.39129   0.25810   1.000
    O393    O    0.38716   0.39130   0.75820   1.000
    O394    O    0.38718   0.89130   0.25819   1.000
    O395    O    0.38718   0.89130   0.75820   1.000
    O396    O    0.88718   0.39130   0.25819   1.000
    O397    O    0.88718   0.39130   0.75820   1.000
    O398    O    0.88718   0.89131   0.25819   1.000
    O399    O    0.88718   0.89131   0.75820   1.000
    O400    O    0.21668   0.14549   0.08588   1.000
    O401    O    0.21668   0.14550   0.58589   1.000
    O402    O    0.21668   0.64550   0.08588   1.000
    O403    O    0.21669   0.64551   0.58589   1.000
    O404    O    0.71668   0.14549   0.08588   1.000
    O405    O    0.71668   0.14550   0.58589   1.000
    O406    O    0.71669   0.64550   0.08588   1.000
    O407    O    0.71668   0.64550   0.58589   1.000
    O408    O    0.04202   0.24190   0.30845   1.000
    O409    O    0.04202   0.24191   0.80846   1.000
    O410    O    0.04204   0.74191   0.30845   1.000
    O411    O    0.04202   0.74191   0.80846   1.000
    O412    O    0.54203   0.24190   0.30845   1.000
    O413    O    0.54202   0.24190   0.80846   1.000
    O414    O    0.54203   0.74191   0.30845   1.000
    O415    O    0.54202   0.74191   0.80846   1.000
    O416    O    0.13714   0.24182   0.10874   1.000
    O417    O    0.13714   0.24182   0.60875   1.000
    O418    O    0.13714   0.74183   0.10874   1.000
    O419    O    0.13714   0.74183   0.60875   1.000
    O420    O    0.63714   0.24182   0.10874   1.000
    O421    O    0.63713   0.24182   0.60875   1.000
    O422    O    0.63714   0.74183   0.10874   1.000
    O423    O    0.63714   0.74183   0.60875   1.000
    O424    O    0.03334   0.08585   0.14544   1.000
    O425    O    0.03334   0.08585   0.64545   1.000
    O426    O    0.03335   0.58586   0.14544   1.000
    O427    O    0.03334   0.58586   0.64545   1.000
    O428    O    0.53335   0.08585   0.14544   1.000
    O429    O    0.53334   0.08585   0.64545   1.000
    O430    O    0.53335   0.58586   0.14544   1.000
    O431    O    0.53335   0.58586   0.64545   1.000
    O432    O    0.20799   0.30845   0.24189   1.000
    O433    O    0.20799   0.30845   0.74190   1.000
    O434    O    0.20799   0.80846   0.24189   1.000
    O435    O    0.20799   0.80846   0.74190   1.000
    O436    O    0.70800   0.30845   0.24189   1.000
    O437    O    0.70798   0.30845   0.74190   1.000
    O438    O    0.70800   0.80846   0.24189   1.000
    O439    O    0.70799   0.80846   0.74190   1.000
    O440    O    0.11282   0.10871   0.24182   1.000
    O441    O    0.11282   0.10871   0.74183   1.000
    O442    O    0.11282   0.60872   0.24182   1.000
    O443    O    0.11282   0.60872   0.74183   1.000
    O444    O    0.61282   0.10871   0.24182   1.000
    O445    O    0.61282   0.10871   0.74183   1.000
    O446    O    0.61282   0.60872   0.24182   1.000
    O447    O    0.61282   0.60872   0.74183   1.000
loop_
    _geom_bond_atom_site_label_1
    _geom_bond_atom_site_label_2
    _geom_bond_distance
    _geom_bond_site_symmetry_2
    _ccdc_geom_bond_type
    C141   C173      1.39775      .   S
    C141   C181      1.40176      .   S
    C141   C166      1.51395  1_554   S
    C139   C171      1.39781      .   S
    C139   C179      1.40176      .   S
    C139   C164      1.51396  1_554   S
    C143   C175      1.39782      .   S
    C143   C183      1.40178      .   S
    C143   C168      1.51394  1_554   S
    C137   C169      1.39780      .   S
    C137   C177      1.40174      .   S
    C137   C162      1.51378  1_554   S
    H80    C265      1.08669  1_554   S
    H82    C267      1.08669  1_554   S
    H88    C269      1.08671  1_554   S
    H90    C271      1.08669  1_554   S
    C173   C149      1.38104      .   S
    C173   H21       1.08660  1_554   S
    C175   C151      1.38200      .   S
    C175   H23       1.08674  1_554   S
    C171   C147      1.38086      .   S
    C171   H19       1.08671  1_554   S
    C169   C145      1.38205      .   S
    C169   H17       1.08671  1_554   S
    H30    C183      1.08931      .   S
    H28    C181      1.08931      .   S
    H26    C179      1.08931      .   S
    H24    C177      1.08927      .   S
    C179   C155      1.38240      .   S
    C177   C153      1.38243      .   S
    C181   C157      1.38238      .   S
    C183   C159      1.38238      .   S
    C262   O406      1.24463      .   S
    C262   O422      1.29791      .   S
    C262   C244      1.51394  1_554   S
    C260   O404      1.24463      .   S
    C260   O420      1.29789      .   S
    C260   C242      1.51394  1_554   S
    C258   O402      1.24464      .   S
    C258   O418      1.29791      .   S
    C258   C240      1.51395  1_554   S
    C256   O400      1.24464      .   S
    C256   O416      1.29790      .   S
    C256   C238      1.51533  1_554   S
    C149   H4        1.09154      .   S
    C149   N332      1.36127      .   S
    C147   H2        1.09155      .   S
    C147   N330      1.36125      .   S
    C151   H6        1.09113      .   S
    C151   N334      1.36046      .   S
    C145   H0        1.09112      .   S
    C145   N328      1.36046      .   S
    C159   N334      1.36572      .   S
    C159   H14       1.08931      .   S
    C157   N332      1.36572      .   S
    C157   H12       1.08927      .   S
    C155   N330      1.36574      .   S
    C155   H10       1.08927      .   S
    C153   N328      1.36573      .   S
    C153   H8        1.08929      .   S
    H129   C320      1.08930      .   S
    H135   C326      1.08933      .   S
    H133   C324      1.08932      .   S
    H131   C322      1.08931      .   S
    N334   O374      1.33240      .   S
    N332   O372      1.33139      .   S
    N330   O370      1.33138      .   S
    N328   O368      1.33143      .   S
    H114   C302      1.08917      .   S
    H108   C296      1.08923      .   S
    H110   C298      1.08923      .   S
    H112   C300      1.08920      .   S
    O428   C308      1.24465      .   S
    O430   C310      1.24459      .   S
    O426   C306      1.24459      .   S
    O424   C304      1.24468      .   S
    C324   C300      1.38245      .   S
    C324   C284      1.40183      .   S
    C326   C302      1.38245      .   S
    C326   C286      1.40181      .   S
    C322   C298      1.38243      .   S
    C322   C282      1.40080      .   S
    C320   C296      1.38245      .   S
    C320   C280      1.40080      .   S
    H38    C203      1.09115      .   S
    H36    C201      1.09113      .   S
    H34    C87       1.09112      .   S
    H32    C85       1.09114      .   S
    C296   N352      1.36563      .   S
    C298   N354      1.36565      .   S
    C300   N356      1.36436      .   S
    C302   N358      1.36579      .   S
    H52    C227      1.08709      .   S
    H54    C225      1.08685  1_565   S
    H50    C221      1.08685  1_565   S
    H48    C223      1.08693      .   S
    C310   C284      1.51427      .   S
    C310   O446      1.29792      .   S
    C308   C286      1.51388  1_545   S
    C308   O444      1.29786      .   S
    C306   C280      1.51402      .   S
    C306   O442      1.29793      .   S
    C304   C282      1.51367  1_545   S
    C304   O440      1.29787      .   S
    C282   C314      1.39909      .   S
    C280   C312      1.39907      .   S
    C286   C318      1.39787      .   S
    C284   C316      1.39784      .   S
    C203   C227      1.38199      .   S
    C203   N342      1.36057      .   S
    C201   C225      1.38201      .   S
    C201   N340      1.36056      .   S
    C87    C223      1.38199      .   S
    C87    N338      1.36055      .   S
    C85    C221      1.38198      .   S
    C85    N336      1.36055      .   S
    C221   C185      1.39777      .   S
    C227   C191      1.39779      .   S
    C225   C189      1.39776      .   S
    C223   C187      1.39778      .   S
    N356   O436      1.33260      .   S
    N356   C292      1.36166      .   S
    N354   O434      1.33241      .   S
    N354   C290      1.36056      .   S
    N352   O432      1.33242      .   S
    N352   C288      1.36054      .   S
    N358   O438      1.33240      .   S
    N358   C294      1.36040      .   S
    O392   C213      1.29910      .   S
    O199   N340      1.33244      .   S
    O390   N342      1.33242      .   S
    O195   N336      1.33242      .   S
    O197   N338      1.33240      .   S
    O394   C215      1.29791      .   S
    O398   C219      1.29738      .   S
    O396   C217      1.29791      .   S
    N342   C211      1.36564      .   S
    N336   C205      1.36582      .   S
    N340   C209      1.36565      .   S
    N338   C207      1.36582      .   S
    C314   C290      1.38198      .   S
    C314   H121      1.08666  1_565   S
    C312   C288      1.38198      .   S
    C312   H123      1.08692      .   S
    C316   C292      1.38198      .   S
    C316   H127      1.08692      .   S
    C318   C294      1.38198      .   S
    C318   H125      1.08665  1_565   S
    C294   H106      1.09121      .   S
    C292   H104      1.09119      .   S
    C290   H102      1.09116      .   S
    C288   H100      1.09115      .   S
    C191   C217      1.51425      .   S
    C191   C235      1.40172      .   S
    C189   C219      1.51377  1_545   S
    C189   C233      1.40174      .   S
    C187   C213      1.51425      .   S
    C187   C231      1.40187      .   S
    C185   C215      1.51389  1_545   S
    C185   C229      1.40174      .   S
    C219   O193      1.24520      .   S
    C213   O384      1.24472      .   S
    C215   O386      1.24461      .   S
    C217   O388      1.24455      .   S
    O414   N350      1.33254      .   S
    O408   N344      1.33258      .   S
    O412   N348      1.33250      .   S
    O410   N346      1.33247      .   S
    C209   C233      1.38245      .   S
    C209   H44       1.08925      .   S
    C211   C235      1.38245      .   S
    C211   H46       1.08922      .   S
    C205   C229      1.38241      .   S
    C205   H40       1.08910      .   S
    C207   C231      1.38243      .   S
    C207   H42       1.08910      .   S
    C233   H60       1.08929      .   S
    C229   H56       1.08893      .   S
    C235   H62       1.08930      .   S
    C231   H58       1.08931      .   S
    H78    C254      1.08924      .   S
    H76    C120      1.08925      .   S
    H74    C118      1.08922      .   S
    H72    C116      1.08913      .   S
    N346   C118      1.36571      .   S
    N346   C247      1.36045      .   S
    N344   C116      1.36568      .   S
    N344   C245      1.36045      .   S
    N350   C254      1.36570      .   S
    N350   C251      1.36045      .   S
    N348   C120      1.36569      .   S
    N348   C249      1.36045      .   S
    C118   C274      1.38242      .   S
    C254   C278      1.38241      .   S
    C116   C272      1.38239      .   S
    C120   C276      1.38242      .   S
    O378   C163      1.29865      .   S
    O376   C161      1.29786      .   S
    O382   C167      1.29785      .   S
    O380   C165      1.29748      .   S
    H64    C245      1.09112      .   S
    H66    C247      1.09110      .   S
    H68    C249      1.09111      .   S
    H70    C251      1.09111      .   S
    C247   C266      1.38205      .   S
    C245   C264      1.38202      .   S
    C249   C268      1.38204      .   S
    C251   C270      1.38204      .   S
    O366   C167      1.24473      .   S
    O360   C161      1.24473      .   S
    O364   C165      1.24453      .   S
    O362   C163      1.24464      .   S
    C165   C142      1.51474      .   S
    C161   C138      1.51431      .   S
    C163   C140      1.51433      .   S
    C167   C144      1.51430      .   S
    C274   H94       1.08822      .   S
    C274   C239      1.40086      .   S
    C278   H98       1.08927      .   S
    C278   C243      1.40170      .   S
    C276   H96       1.08932      .   S
    C276   C241      1.40087      .   S
    C272   H92       1.08931      .   S
    C272   C237      1.40176      .   S
    C270   C243      1.39776      .   S
    C270   H91       1.08701      .   S
    C264   C237      1.39777      .   S
    C264   H81       1.08704      .   S
    C266   C239      1.39738      .   S
    C266   H83       1.08700      .   S
    C268   C241      1.39740      .   S
    C268   H89       1.08701      .   S
    H18    C172      1.08702      .   S
    H22    C176      1.08678      .   S
    H16    C170      1.08705      .   S
    H20    C174      1.08702      .   S
    C239   C259      1.51550      .   S
    C241   C261      1.51549      .   S
    C237   C257      1.51429      .   S
    C243   C263      1.51430      .   S
    C144   C176      1.39771      .   S
    C144   C184      1.40176      .   S
    C142   C174      1.39781      .   S
    C142   C182      1.40172      .   S
    C140   C172      1.39780      .   S
    C140   C180      1.40175      .   S
    C138   C170      1.39782      .   S
    C138   C178      1.40174      .   S
    C176   C152      1.38103      .   S
    C170   C146      1.38201      .   S
    C174   C150      1.38071      .   S
    C172   C148      1.38069      .   S
    H31    C184      1.08936      .   S
    H29    C182      1.08925      .   S
    H27    C180      1.08925      .   S
    H25    C178      1.08925      .   S
    C184   C160      1.38238      .   S
    C182   C158      1.38225      .   S
    C180   C156      1.38223      .   S
    C178   C154      1.38220      .   S
    C257   O401      1.24463      .   S
    C257   O417      1.29789      .   S
    C263   O407      1.24463      .   S
    C263   O423      1.29791      .   S
    C259   O403      1.24463      .   S
    C259   O419      1.29789      .   S
    C261   O405      1.24462      .   S
    C261   O421      1.29790      .   S
    C152   H7        1.09163      .   S
    C152   N335      1.36139      .   S
    C150   H5        1.09162      .   S
    C150   N333      1.36139      .   S
    C148   H3        1.09163      .   S
    C148   N331      1.36139      .   S
    C146   H1        1.09111      .   S
    C146   N329      1.36047      .   S
    C158   N333      1.36578      .   S
    C158   H13       1.08943      .   S
    C156   N331      1.36579      .   S
    C156   H11       1.08942      .   S
    C154   N329      1.36578      .   S
    C154   H9        1.08940      .   S
    C160   N335      1.36573      .   S
    C160   H15       1.08928      .   S
    H136   C327      1.10190      .   S
    H132   C323      1.08933      .   S
    H134   C325      1.08930      .   S
    H130   C321      1.08915      .   S
    N329   O369      1.33250      .   S
    N331   O371      1.33249      .   S
    N333   O373      1.33251      .   S
    N335   O375      1.33122      .   S
    H109   C297      1.08936      .   S
    H111   C299      1.08920      .   S
    H113   C301      1.08922      .   S
    H115   C303      1.08922      .   S
    O431   C311      1.24461      .   S
    O425   C305      1.24465      .   S
    O429   C309      1.24327      .   S
    O427   C307      1.24468      .   S
    C327   C303      1.38245      .   S
    C327   C287      1.40185      .   S
    C325   C301      1.38245      .   S
    C325   C285      1.40186      .   S
    C321   C297      1.38244      .   S
    C321   C281      1.40184      .   S
    C323   C299      1.38244      .   S
    C323   C283      1.40183      .   S
    H39    C204      1.09114      .   S
    H37    C202      1.09119      .   S
    H35    C200      1.09120      .   S
    H33    C86       1.09130      .   S
    C299   N355      1.36582      .   S
    C303   N359      1.36582      .   S
    C301   N357      1.36419      .   S
    C297   N353      1.36584      .   S
    H55    C226      1.08714  1_565   S
    H49    C224      1.08712      .   S
    H51    C222      1.08669  1_565   S
    H53    C228      1.08694      .   S
    C309   C287      1.51419  1_545   S
    C309   O445      1.29906      .   S
    C311   C285      1.51428      .   S
    C311   O447      1.29795      .   S
    C307   C281      1.51425      .   S
    C307   O443      1.29788      .   S
    C305   C283      1.51388  1_545   S
    C305   O441      1.29790      .   S
    C287   C319      1.39783      .   S
    C285   C317      1.39780      .   S
    C283   C315      1.39784      .   S
    C281   C313      1.39784      .   S
    C204   C228      1.38199      .   S
    C204   N343      1.36057      .   S
    C200   C224      1.38198      .   S
    C200   N339      1.36059      .   S
    C202   C226      1.38199      .   S
    C202   N341      1.36057      .   S
    C86    C222      1.38196      .   S
    C86    N337      1.36041      .   S
    C222   C186      1.39797      .   S
    C224   C188      1.39780      .   S
    C226   C190      1.39784      .   S
    C228   C84       1.39779      .   S
    N357   O437      1.33261      .   S
    N357   C293      1.36180      .   S
    N359   O439      1.33239      .   S
    N359   C295      1.36040      .   S
    N353   O433      1.33239      .   S
    N353   C289      1.36040      .   S
    N355   O435      1.33239      .   S
    N355   C291      1.36023      .   S
    O196   N337      1.33238      .   S
    O391   N343      1.33242      .   S
    O198   N339      1.33242      .   S
    O389   N341      1.33241      .   S
    O393   C214      1.29792      .   S
    O395   C216      1.29709      .   S
    O397   C218      1.29789      .   S
    O399   C220      1.29790      .   S
    N337   C206      1.36582      .   S
    N343   C212      1.36511      .   S
    N341   C210      1.36562      .   S
    N339   C208      1.36563      .   S
    C319   C295      1.38198      .   S
    C319   H126      1.08667  1_565   S
    C313   C289      1.38196      .   S
    C313   H124      1.08692      .   S
    C315   C291      1.38195      .   S
    C315   H122      1.08665  1_565   S
    C317   C293      1.38199      .   S
    C317   H128      1.08692      .   S
    C291   H103      1.09136      .   S
    C289   H101      1.09118      .   S
    C293   H105      1.09115      .   S
    C295   H107      1.09118      .   S
    C84    C218      1.51425      .   S
    C84    C236      1.40174      .   S
    C188   C214      1.51423      .   S
    C188   C232      1.40175      .   S
    C190   C220      1.51389  1_545   S
    C190   C234      1.40169      .   S
    C186   C216      1.51366  1_545   S
    C186   C230      1.40171      .   S
    C216   O387      1.24558      .   S
    C214   O385      1.24464      .   S
    C218   O192      1.24459      .   S
    C220   O194      1.24467      .   S
    O413   N349      1.33258      .   S
    O411   N347      1.33257      .   S
    O409   N345      1.33252      .   S
    O415   N351      1.33257      .   S
    C212   C236      1.38253      .   S
    C212   H47       1.08967      .   S
    C208   C232      1.38245      .   S
    C208   H43       1.08920      .   S
    C210   C234      1.38244      .   S
    C210   H45       1.08920      .   S
    C206   C230      1.38244      .   S
    C206   H41       1.08910      .   S
    C232   H59       1.08930      .   S
    C234   H61       1.08932      .   S
    C236   H63       1.08931      .   S
    C230   H57       1.08931      .   S
    H75    C119      1.08928      .   S
    H79    C255      1.08927      .   S
    H73    C117      1.08910      .   S
    H77    C253      1.08913      .   S
    N345   C117      1.36571      .   S
    N345   C246      1.36045      .   S
    N347   C119      1.36569      .   S
    N347   C248      1.36044      .   S
    N349   C253      1.36569      .   S
    N349   C250      1.36045      .   S
    N351   C255      1.36570      .   S
    N351   C252      1.36044      .   S
    C119   C275      1.38242      .   S
    C255   C279      1.38241      .   S
    C117   C273      1.38241      .   S
    C253   C277      1.38242      .   S
    O383   C168      1.29878      .   S
    O379   C164      1.29785      .   S
    O381   C166      1.29786      .   S
    O377   C162      1.29788      .   S
    H69    C250      1.09112      .   S
    H71    C252      1.09112      .   S
    H67    C248      1.09113      .   S
    H65    C246      1.09110      .   S
    C252   C271      1.38203      .   S
    C250   C269      1.38205      .   S
    C248   C267      1.38204      .   S
    C246   C265      1.38204      .   S
    O365   C166      1.24479      .   S
    O367   C168      1.24477      .   S
    O361   C162      1.24466      .   S
    O363   C164      1.24464      .   S
    C279   H99       1.08927      .   S
    C279   C244      1.40172      .   S
    C277   H97       1.08931      .   S
    C277   C242      1.40172      .   S
    C275   H95       1.08926      .   S
    C275   C240      1.40172      .   S
    C273   H93       1.08930      .   S
    C273   C238      1.40074      .   S
    C265   C238      1.39734      .   S
    C267   C240      1.39776      .   S
    C269   C242      1.39776      .   S
    C271   C244      1.39777      .   S
