# CIF file generated by openbabel 2.4.90, see http://openbabel.sf.net
data_I
_chemical_name_common ''
_cell_length_a 14.01
_cell_length_b 20.56
_cell_length_c 20.561
_cell_angle_alpha 89.85
_cell_angle_beta 93.673
_cell_angle_gamma 86.353
_space_group_name_H-M_alt 'P 1'
_space_group_name_Hall 'P 1'
loop_
    _symmetry_equiv_pos_as_xyz
    x,y,z
loop_
    _atom_site_label
    _atom_site_type_symbol
    _atom_site_fract_x
    _atom_site_fract_y
    _atom_site_fract_z
    _atom_site_occupancy
    Zr0     Zr   0.37502   0.28728   0.28720   1.000
    Zr1     Zr   0.37501   0.28728   0.78727   1.000
    Zr2     Zr   0.37502   0.78729   0.28726   1.000
    Zr3     Zr   0.37501   0.78729   0.78720   1.000
    Zr4     Zr   0.87502   0.28728   0.28726   1.000
    Zr5     Zr   0.87501   0.28728   0.78720   1.000
    Zr6     Zr   0.87502   0.78729   0.28720   1.000
    Zr7     Zr   0.87501   0.78729   0.78727   1.000
    Zr8     Zr   0.12499   0.21273   0.21275   1.000
    Zr9     Zr   0.12499   0.21273   0.71276   1.000
    Zr10    Zr   0.12499   0.71273   0.21275   1.000
    Zr11    Zr   0.12498   0.71274   0.71276   1.000
    Zr12    Zr   0.62499   0.21272   0.21275   1.000
    Zr13    Zr   0.62498   0.21273   0.71276   1.000
    Zr14    Zr   0.62499   0.71274   0.21275   1.000
    Zr15    Zr   0.62499   0.71274   0.71276   1.000
    N16     N    0.36982   0.54361   0.28222   1.000
    O17     O    0.37546   0.44145   0.27744   1.000
    O18     O    0.35167   0.64152   0.27746   1.000
    O19     O    0.28916   0.62288   0.25883   1.000
    N20     N    0.61981   0.21780   0.45643   1.000
    O21     O    0.60166   0.22256   0.35851   1.000
    O22     O    0.53917   0.24120   0.37713   1.000
    O23     O    0.62543   0.22254   0.55859   1.000
    N24     N    0.63018   0.45641   0.21777   1.000
    O25     O    0.62454   0.55857   0.22253   1.000
    O26     O    0.64834   0.35850   0.22254   1.000
    O27     O    0.71084   0.37714   0.24117   1.000
    N28     N    0.63018   0.45641   0.71778   1.000
    O29     O    0.62454   0.55857   0.72254   1.000
    O30     O    0.64833   0.35850   0.72255   1.000
    O31     O    0.71084   0.37714   0.74116   1.000
    N32     N    0.63018   0.95641   0.71773   1.000
    O33     O    0.62454   0.05857   0.72251   1.000
    O34     O    0.64833   0.85850   0.72253   1.000
    O35     O    0.71084   0.87714   0.74116   1.000
    N36     N    0.61981   0.21781   0.95644   1.000
    O37     O    0.62544   0.22254   0.05859   1.000
    O38     O    0.60166   0.22256   0.85852   1.000
    O39     O    0.53916   0.24120   0.87715   1.000
    N40     N    0.38019   0.28220   0.54358   1.000
    O41     O    0.37457   0.27747   0.44140   1.000
    O42     O    0.39834   0.27745   0.64150   1.000
    O43     O    0.46083   0.25881   0.62287   1.000
    N44     N    0.88020   0.78221   0.54357   1.000
    O45     O    0.89835   0.77746   0.64148   1.000
    O46     O    0.96084   0.75882   0.62285   1.000
    O47     O    0.87457   0.77748   0.44140   1.000
    N48     N    0.13018   0.95641   0.21777   1.000
    O49     O    0.14834   0.85850   0.22254   1.000
    O50     O    0.21085   0.87714   0.24117   1.000
    O51     O    0.12454   0.05857   0.22253   1.000
    N52     N    0.38020   0.78221   0.04357   1.000
    O53     O    0.39835   0.77746   0.14147   1.000
    O54     O    0.46084   0.75882   0.12285   1.000
    O55     O    0.37457   0.77748   0.94140   1.000
    N56     N    0.13018   0.45641   0.21777   1.000
    O57     O    0.14833   0.35850   0.22254   1.000
    O58     O    0.21084   0.37714   0.24116   1.000
    O59     O    0.12454   0.55857   0.22253   1.000
    N60     N    0.36983   0.04360   0.28223   1.000
    O61     O    0.37546   0.94145   0.27748   1.000
    O62     O    0.35167   0.14151   0.27744   1.000
    O63     O    0.28916   0.12287   0.25883   1.000
    N64     N    0.86983   0.04360   0.28223   1.000
    O65     O    0.87546   0.94145   0.27746   1.000
    O66     O    0.85167   0.14151   0.27745   1.000
    O67     O    0.78917   0.12287   0.25882   1.000
    N68     N    0.11981   0.21780   0.45643   1.000
    O69     O    0.10166   0.22256   0.35852   1.000
    O70     O    0.03916   0.24120   0.37714   1.000
    O71     O    0.12544   0.22254   0.55859   1.000
    N72     N    0.61982   0.71781   0.45643   1.000
    O73     O    0.60166   0.72257   0.35852   1.000
    O74     O    0.53917   0.74121   0.37714   1.000
    O75     O    0.62544   0.72255   0.55859   1.000
    N76     N    0.38019   0.78221   0.54357   1.000
    O77     O    0.37457   0.77747   0.44140   1.000
    O78     O    0.46084   0.75882   0.62287   1.000
    O79     O    0.39834   0.77746   0.64148   1.000
    N80     N    0.88020   0.28220   0.04357   1.000
    O81     O    0.89835   0.27745   0.14147   1.000
    O82     O    0.96084   0.25881   0.12285   1.000
    O83     O    0.87456   0.27747   0.94140   1.000
    N84     N    0.61982   0.71781   0.95644   1.000
    O85     O    0.62544   0.72255   0.05859   1.000
    O86     O    0.60166   0.72257   0.85852   1.000
    O87     O    0.53917   0.74121   0.87713   1.000
    N88     N    0.38019   0.28220   0.04357   1.000
    O89     O    0.37456   0.27747   0.94142   1.000
    O90     O    0.39835   0.27745   0.14146   1.000
    O91     O    0.46084   0.25881   0.12285   1.000
    N92     N    0.88020   0.78221   0.04357   1.000
    O93     O    0.89835   0.77746   0.14147   1.000
    O94     O    0.96084   0.75882   0.12286   1.000
    O95     O    0.87457   0.77748   0.94140   1.000
    N96     N    0.86983   0.54361   0.78224   1.000
    O97     O    0.87546   0.44145   0.77747   1.000
    O98     O    0.85167   0.64152   0.77747   1.000
    O99     O    0.78916   0.62288   0.75884   1.000
    N100    N    0.11981   0.71781   0.95644   1.000
    O101    O    0.12544   0.72255   0.05859   1.000
    O102    O    0.10166   0.72257   0.85852   1.000
    O103    O    0.03917   0.74121   0.87715   1.000
    N104    N    0.11981   0.21780   0.95643   1.000
    O105    O    0.12544   0.22254   0.05859   1.000
    O106    O    0.10166   0.22256   0.85852   1.000
    O107    O    0.03916   0.24120   0.87713   1.000
    N108    N    0.86983   0.04360   0.78224   1.000
    O109    O    0.87546   0.94145   0.77749   1.000
    O110    O    0.85167   0.14151   0.77745   1.000
    O111    O    0.78916   0.12287   0.75884   1.000
    N112    N    0.11981   0.71781   0.45641   1.000
    O113    O    0.10166   0.72257   0.35851   1.000
    O114    O    0.03917   0.74121   0.37712   1.000
    O115    O    0.12544   0.72255   0.55858   1.000
    N116    N    0.86983   0.54361   0.28223   1.000
    O117    O    0.87546   0.44145   0.27748   1.000
    O118    O    0.85167   0.64152   0.27744   1.000
    O119    O    0.78917   0.62288   0.25883   1.000
    N120    N    0.36982   0.04360   0.78224   1.000
    O121    O    0.37546   0.94145   0.77747   1.000
    O122    O    0.35166   0.14151   0.77747   1.000
    O123    O    0.28916   0.12287   0.75884   1.000
    N124    N    0.63018   0.95641   0.21778   1.000
    O125    O    0.62454   0.05856   0.22253   1.000
    O126    O    0.64834   0.85851   0.22255   1.000
    O127    O    0.71085   0.87714   0.24116   1.000
    N128    N    0.88019   0.28220   0.54358   1.000
    O129    O    0.96083   0.25881   0.62287   1.000
    O130    O    0.89834   0.27745   0.64148   1.000
    O131    O    0.87457   0.27747   0.44142   1.000
    N132    N    0.13018   0.45641   0.71779   1.000
    O133    O    0.12454   0.55857   0.72254   1.000
    O134    O    0.14833   0.35850   0.72256   1.000
    O135    O    0.21084   0.37714   0.74119   1.000
    N136    N    0.36983   0.54361   0.78224   1.000
    O137    O    0.37546   0.44145   0.77749   1.000
    O138    O    0.35167   0.64152   0.77745   1.000
    O139    O    0.28916   0.62288   0.75884   1.000
    N140    N    0.13018   0.95641   0.71778   1.000
    O141    O    0.14833   0.85850   0.72256   1.000
    O142    O    0.21084   0.87714   0.74117   1.000
    O143    O    0.12454   0.05857   0.72254   1.000
loop_
    _geom_bond_atom_site_label_1
    _geom_bond_atom_site_label_2
    _geom_bond_distance
    _geom_bond_site_symmetry_2
    _ccdc_geom_bond_type
    N16    O17       2.09967      .   S
    Zr0    O17       3.17594      .   S
    N16    O18       2.01427      .   S
    Zr2    O18       3.04132      .   S
    N16    O19       1.96385      .   S
    Zr10   O19       2.96176      .   S
    N20    O21       2.01433      .   S
    Zr12   O21       3.04144      .   S
    N20    O22       1.96397      .   S
    Zr0    O22       2.96207      .   S
    N20    O23       2.09974      .   S
    Zr13   O23       3.17617      .   S
    N24    O25       2.09963      .   S
    Zr14   O25       3.17594      .   S
    N24    O26       2.01428      .   S
    Zr12   O26       3.04133      .   S
    N24    O27       1.96387      .   S
    Zr4    O27       2.96178      .   S
    N28    O29       2.09964      .   S
    Zr15   O29       3.17594      .   S
    N28    O30       2.01428      .   S
    Zr13   O30       3.04130      .   S
    N28    O31       1.96381      .   S
    Zr5    O31       2.96153      .   S
    N32    O33       2.09953  1_565   S
    Zr13   O33       3.17577      .   S
    N32    O34       2.01423      .   S
    Zr15   O34       3.04119      .   S
    N32    O35       1.96393      .   S
    Zr7    O35       2.96188      .   S
    N36    O37       2.09954  1_556   S
    Zr12   O37       3.17597      .   S
    N36    O38       2.01432      .   S
    Zr13   O38       3.04142      .   S
    N36    O39       1.96377      .   S
    Zr1    O39       2.96161      .   S
    N40    O41       2.09999      .   S
    Zr0    O41       3.17693      .   S
    N40    O42       2.01444      .   S
    Zr1    O42       3.04157      .   S
    N40    O43       1.96380      .   S
    Zr13   O43       2.96158      .   S
    N44    O45       2.01421      .   S
    Zr7    O45       3.04206      .   S
    N44    O46       1.96362      .   S
    Zr11   O46       2.96184  1_455   S
    N44    O47       2.09986      .   S
    Zr6    O47       3.17680      .   S
    N48    O49       2.01422      .   S
    Zr10   O49       3.04125      .   S
    N48    O50       1.96385      .   S
    Zr2    O50       2.96182      .   S
    N48    O51       2.09950  1_565   S
    Zr8    O51       3.17581      .   S
    N52    O53       2.01415      .   S
    Zr2    O53       3.04188      .   S
    N52    O54       1.96358      .   S
    Zr14   O54       2.96181      .   S
    N52    O55       2.09981  1_554   S
    Zr3    O55       3.17685      .   S
    N56    O57       2.01427      .   S
    Zr8    O57       3.04129      .   S
    N56    O58       1.96383      .   S
    Zr0    O58       2.96162      .   S
    N56    O59       2.09963      .   S
    Zr10   O59       3.17593      .   S
    N60    O61       2.09949  1_545   S
    Zr2    O61       3.17582      .   S
    N60    O62       2.01422      .   S
    Zr0    O62       3.04116      .   S
    N60    O63       1.96383      .   S
    Zr8    O63       2.96178      .   S
    N64    O65       2.09950  1_545   S
    Zr6    O65       3.17578      .   S
    N64    O66       2.01422      .   S
    Zr4    O66       3.04126      .   S
    N64    O67       1.96383      .   S
    Zr12   O67       2.96174      .   S
    N68    O69       2.01438      .   S
    Zr8    O69       3.04149      .   S
    N68    O70       1.96380      .   S
    Zr4    O70       2.96160  1_655   S
    N68    O71       2.09969      .   S
    Zr9    O71       3.17612      .   S
    N72    O73       2.01436      .   S
    Zr14   O73       3.04148      .   S
    N72    O74       1.96377      .   S
    Zr2    O74       2.96158      .   S
    N72    O75       2.09971      .   S
    Zr15   O75       3.17613      .   S
    N76    O77       2.09990      .   S
    Zr2    O77       3.17561      .   S
    N76    O78       1.96387      .   S
    Zr15   O78       2.96167      .   S
    N76    O79       2.01416      .   S
    Zr3    O79       3.04057      .   S
    N80    O81       2.01418      .   S
    Zr4    O81       3.04192      .   S
    N80    O82       1.96360      .   S
    Zr8    O82       2.96179  1_455   S
    N80    O83       2.09979  1_554   S
    Zr5    O83       3.17682      .   S
    N84    O85       2.09956  1_556   S
    Zr14   O85       3.17598      .   S
    N84    O86       2.01431      .   S
    Zr15   O86       3.04141      .   S
    N84    O87       1.96404      .   S
    Zr3    O87       2.96221      .   S
    N88    O89       2.09947  1_554   S
    Zr1    O89       3.17590      .   S
    N88    O90       2.01378      .   S
    Zr0    O90       3.04088      .   S
    N88    O91       1.96356      .   S
    Zr12   O91       2.96181      .   S
    N92    O93       2.01409      .   S
    Zr6    O93       3.04071      .   S
    N92    O94       1.96380      .   S
    Zr10   O94       2.96165  1_455   S
    N92    O95       2.09982  1_554   S
    Zr7    O95       3.17543      .   S
    N96    O97       2.09965      .   S
    Zr5    O97       3.17591      .   S
    N96    O98       2.01428      .   S
    Zr7    O98       3.04134      .   S
    N96    O99       1.96388      .   S
    Zr15   O99       2.96182      .   S
    N100   O101      2.09956  1_556   S
    Zr10   O101      3.17598      .   S
    N100   O102      2.01431      .   S
    Zr11   O102      3.04141      .   S
    N100   O103      1.96375      .   S
    Zr7    O103      2.96161  1_655   S
    N104   O105      2.09960  1_556   S
    Zr8    O105      3.17602      .   S
    N104   O106      2.01427      .   S
    Zr9    O106      3.04139      .   S
    N104   O107      1.96398      .   S
    Zr5    O107      2.96216  1_655   S
    N108   O109      2.09947  1_545   S
    Zr7    O109      3.17581      .   S
    N108   O110      2.01420      .   S
    Zr5    O110      3.04116      .   S
    N108   O111      1.96385      .   S
    Zr13   O111      2.96184      .   S
    N112   O113      2.01418      .   S
    Zr10   O113      3.04130      .   S
    N112   O114      1.96385      .   S
    Zr6    O114      2.96202  1_655   S
    N112   O115      2.09989      .   S
    Zr11   O115      3.17632      .   S
    N116   O117      2.09961      .   S
    Zr4    O117      3.17594      .   S
    N116   O118      2.01427      .   S
    Zr6    O118      3.04123      .   S
    N116   O119      1.96388      .   S
    Zr14   O119      2.96181      .   S
    N120   O121      2.09951  1_545   S
    Zr3    O121      3.17577      .   S
    N120   O122      2.01423      .   S
    Zr1    O122      3.04130      .   S
    N120   O123      1.96382      .   S
    Zr9    O123      2.96174      .   S
    N124   O125      2.09949  1_565   S
    Zr12   O125      3.17579      .   S
    N124   O126      2.01420      .   S
    Zr14   O126      3.04126      .   S
    N124   O127      1.96377      .   S
    Zr6    O127      2.96151      .   S
    N128   O129      1.96385      .   S
    Zr9    O129      2.96168  1_455   S
    N128   O130      2.01413      .   S
    Zr5    O130      3.04053      .   S
    N128   O131      2.09958      .   S
    Zr4    O131      3.17601      .   S
    N132   O133      2.09964      .   S
    Zr11   O133      3.17594      .   S
    N132   O134      2.01427      .   S
    Zr9    O134      3.04129      .   S
    N132   O135      1.96386      .   S
    Zr1    O135      2.96178      .   S
    N136   O137      2.09960      .   S
    Zr1    O137      3.17593      .   S
    N136   O138      2.01426      .   S
    Zr3    O138      3.04121      .   S
    N136   O139      1.96389      .   S
    Zr11   O139      2.96186      .   S
    N140   O141      2.01421      .   S
    Zr11   O141      3.04125      .   S
    N140   O142      1.96376      .   S
    Zr3    O142      2.96149      .   S
    N140   O143      2.09950  1_565   S
    Zr9    O143      3.17581      .   S
