# CIF file generated by openbabel 2.4.90, see http://openbabel.sf.net
data_I
_chemical_name_common ''
_cell_length_a 17.233
_cell_length_b 17.256
_cell_length_c 17.407
_cell_angle_alpha 86.76
_cell_angle_beta 86.935
_cell_angle_gamma 89.302
_space_group_name_H-M_alt 'P 1'
_space_group_name_Hall 'P 1'
loop_
    _symmetry_equiv_pos_as_xyz
    x,y,z
loop_
    _atom_site_label
    _atom_site_type_symbol
    _atom_site_fract_x
    _atom_site_fract_y
    _atom_site_fract_z
    _atom_site_occupancy
    Zn0     Zn   0.20669   0.08188   0.65958   1.000
    Zn1     Zn   0.07960   0.07641   0.80329   1.000
    Zn2     Zn   0.20625   0.20639   0.79347   1.000
    Zn3     Zn   0.79312   0.92684   0.33595   1.000
    Zn4     Zn   0.91996   0.79403   0.34002   1.000
    Zn5     Zn   0.92386   0.92340   0.19713   1.000
    Zn6     Zn   0.79395   0.79685   0.20699   1.000
    H7      H    0.84296   0.17442   0.61913   1.000
    H8      H    0.69906   0.16548   0.61715   1.000
    H9      H    0.69143   0.05997   0.84788   1.000
    H10     H    0.83553   0.06611   0.84767   1.000
    H11     H    0.59354   0.07331   0.61829   1.000
    H12     H    0.44925   0.08172   0.61761   1.000
    H13     H    0.43972   0.16616   0.84530   1.000
    H14     H    0.58371   0.15547   0.84788   1.000
    H15     H    0.17893   0.03564   0.28449   1.000
    H16     H    0.18872   0.03806   0.42626   1.000
    H17     H    0.17010   0.84773   0.60827   1.000
    H18     H    0.16286   0.70357   0.60536   1.000
    H19     H    0.09863   0.68902   0.84834   1.000
    H20     H    0.10174   0.83316   0.84955   1.000
    H21     H    0.06526   0.59601   0.62526   1.000
    H22     H    0.06834   0.45142   0.62607   1.000
    H23     H    0.20547   0.44184   0.82527   1.000
    H24     H    0.19933   0.58614   0.82762   1.000
    H25     H    0.06261   0.25831   0.28274   1.000
    H26     H    0.07081   0.25890   0.42513   1.000
    H27     H    0.83070   0.15905   0.38271   1.000
    H28     H    0.83808   0.30295   0.38356   1.000
    H29     H    0.93667   0.31111   0.15038   1.000
    H30     H    0.93186   0.16706   0.15151   1.000
    H31     H    0.92932   0.40845   0.37979   1.000
    Zn32    Zn   0.07578   0.20998   0.66603   1.000
    H33     H    0.92094   0.55252   0.38032   1.000
    H34     H    0.83014   0.56217   0.15498   1.000
    H35     H    0.84098   0.41836   0.15243   1.000
    H36     H    0.96811   0.81955   0.71643   1.000
    H37     H    0.96556   0.80977   0.57459   1.000
    H38     H    0.15382   0.83344   0.39191   1.000
    H39     H    0.29810   0.84193   0.39513   1.000
    H40     H    0.31188   0.90733   0.15225   1.000
    H41     H    0.16760   0.90304   0.15078   1.000
    H42     H    0.40549   0.94091   0.37503   1.000
    H43     H    0.55035   0.93860   0.37404   1.000
    H44     H    0.55967   0.80143   0.17546   1.000
    H45     H    0.41516   0.80683   0.17324   1.000
    H46     H    0.74533   0.93604   0.71729   1.000
    H47     H    0.74467   0.92795   0.57491   1.000
    H48     H    0.16573   0.26416   0.02720   1.000
    H49     H    0.15836   0.26661   0.17042   1.000
    H50     H    0.08125   0.02923   0.18680   1.000
    H51     H    0.08443   0.02905   0.04424   1.000
    H52     H    0.73858   0.83343   0.97248   1.000
    H53     H    0.73705   0.83960   0.82914   1.000
    H54     H    0.97402   0.91864   0.81405   1.000
    H55     H    0.97315   0.91691   0.95673   1.000
    C56     C    0.93393   0.13074   0.73563   1.000
    C57     C    0.84799   0.12206   0.73390   1.000
    C58     C    0.80918   0.14874   0.66857   1.000
    C59     C    0.72884   0.14329   0.66768   1.000
    C60     C    0.68481   0.11315   0.73278   1.000
    C61     C    0.72437   0.08534   0.79759   1.000
    C62     C    0.80502   0.08870   0.79785   1.000
    C63     C    0.59898   0.11402   0.73310   1.000
    C64     C    0.55999   0.09366   0.66825   1.000
    C65     C    0.47939   0.09816   0.66756   1.000
    C66     C    0.43559   0.12490   0.73119   1.000
    C67     C    0.47392   0.14497   0.79626   1.000
    C68     C    0.55438   0.13857   0.79751   1.000
    C69     C    0.34937   0.13297   0.72924   1.000
    C70     C    0.15503   0.08465   0.31513   1.000
    C71     C    0.16086   0.08586   0.39439   1.000
    C72     C    0.14152   0.93500   0.73079   1.000
    C73     C    0.13696   0.84899   0.72912   1.000
    C74     C    0.15362   0.81231   0.66022   1.000
    C75     C    0.14937   0.73199   0.65891   1.000
    C76     C    0.13113   0.68640   0.72687   1.000
    C77     C    0.11438   0.72373   0.79566   1.000
    C78     C    0.11600   0.80418   0.79658   1.000
    C79     C    0.13203   0.60089   0.72651   1.000
    C80     C    0.09602   0.56229   0.66917   1.000
    C81     C    0.09757   0.48169   0.66936   1.000
    C82     C    0.13729   0.43808   0.72552   1.000
    C83     C    0.17415   0.47619   0.78236   1.000
    C84     C    0.17037   0.55660   0.78353   1.000
    C85     C    0.14014   0.35176   0.72522   1.000
    C86     C    0.14633   0.21344   0.06283   1.000
    C87     C    0.14201   0.21451   0.14277   1.000
    C88     C    0.09988   0.08089   0.15224   1.000
    C89     C    0.10164   0.08049   0.07234   1.000
    C90     C    0.09101   0.21036   0.31402   1.000
    C91     C    0.09509   0.21075   0.39355   1.000
    C92     C    0.13234   0.14418   0.94133   1.000
    C93     C    0.12630   0.14628   0.02685   1.000
    C94     C    0.12023   0.14781   0.18873   1.000
    C95     C    0.12131   0.14752   0.27352   1.000
    C96     C    0.13118   0.14908   0.43435   1.000
    C97     C    0.13820   0.15070   0.51918   1.000
    C98     C    0.87175   0.06841   0.26575   1.000
    C99     C    0.87965   0.15433   0.26675   1.000
    C100    C    0.85450   0.19298   0.33246   1.000
    C101    C    0.85906   0.27330   0.33270   1.000
    C102    C    0.88691   0.31740   0.26668   1.000
    C103    C    0.91308   0.27804   0.20140   1.000
    C104    C    0.91052   0.19744   0.20169   1.000
    C105    C    0.88552   0.40310   0.26611   1.000
    C106    C    0.90762   0.44198   0.33031   1.000
    C107    C    0.90310   0.52245   0.33092   1.000
    C108    C    0.87458   0.56621   0.26792   1.000
    C109    C    0.85268   0.52800   0.20353   1.000
    C110    C    0.85919   0.44765   0.20227   1.000
    C111    C    0.86693   0.65231   0.26997   1.000
    C112    C    0.91907   0.84347   0.68555   1.000
    C113    C    0.91777   0.83764   0.60630   1.000
    C114    C    0.06609   0.86190   0.26927   1.000
    C115    C    0.15217   0.86717   0.27113   1.000
    C116    C    0.18910   0.85048   0.34007   1.000
    C117    C    0.26948   0.85545   0.34155   1.000
    C118    C    0.31488   0.87439   0.27369   1.000
    C119    C    0.27731   0.89110   0.20486   1.000
    C120    C    0.19678   0.88881   0.20378   1.000
    C121    C    0.40051   0.87412   0.27407   1.000
    C122    C    0.43924   0.91038   0.33117   1.000
    C123    C    0.51999   0.90929   0.33086   1.000
    C124    C    0.56356   0.86974   0.27482   1.000
    C125    C    0.52530   0.83269   0.21819   1.000
    C126    C    0.44478   0.83602   0.21712   1.000
    C127    C    0.65001   0.86644   0.27504   1.000
    C128    C    0.78938   0.85300   0.93708   1.000
    C129    C    0.78885   0.85659   0.85713   1.000
    C130    C    0.92228   0.89984   0.84840   1.000
    C131    C    0.92208   0.89890   0.92831   1.000
    C132    C    0.79326   0.90763   0.68618   1.000
    C133    C    0.79281   0.90359   0.60670   1.000
    C134    C    0.85744   0.86901   0.05896   1.000
    C135    C    0.85611   0.87409   0.97340   1.000
    C136    C    0.85570   0.87865   0.81159   1.000
    C137    C    0.85619   0.87726   0.72685   1.000
    C138    C    0.85449   0.86746   0.56617   1.000
    C139    C    0.85261   0.86103   0.48134   1.000
    O140    O    0.96760   0.09312   0.79003   1.000
    O141    O    0.96670   0.17578   0.68307   1.000
    O142    O    0.31480   0.16971   0.78322   1.000
    O143    O    0.08963   0.31980   0.68649   1.000
    O144    O    0.09931   0.20288   0.55421   1.000
    O145    O    0.10351   0.96620   0.78632   1.000
    O146    O    0.18294   0.97008   0.67701   1.000
    O147    O    0.19278   0.31721   0.76370   1.000
    O148    O    0.31714   0.10288   0.67364   1.000
    O149    O    0.18301   0.09983   0.55044   1.000
    O150    O    0.14251   0.14353   0.73045   1.000
    O151    O    0.09997   0.08717   0.91210   1.000
    O152    O    0.16964   0.19893   0.90356   1.000
    O153    O    0.90686   0.03513   0.20983   1.000
    O154    O    0.82985   0.03509   0.32048   1.000
    O155    O    0.82737   0.68710   0.21806   1.000
    O156    O    0.68293   0.91645   0.31352   1.000
    O157    O    0.80010   0.90021   0.44674   1.000
    O158    O    0.03449   0.89984   0.21373   1.000
    O159    O    0.03135   0.82001   0.32289   1.000
    O160    O    0.68358   0.81350   0.23651   1.000
    O161    O    0.90035   0.68407   0.32389   1.000
    O162    O    0.90332   0.81661   0.44962   1.000
    O163    O    0.85754   0.85972   0.27016   1.000
    O164    O    0.91314   0.90328   0.08850   1.000
    O165    O    0.80329   0.83059   0.09639   1.000
loop_
    _geom_bond_atom_site_label_1
    _geom_bond_atom_site_label_2
    _geom_bond_distance
    _geom_bond_site_symmetry_2
    _ccdc_geom_bond_type
    C93    C86       1.40331      .   S
    C93    C89       1.40380      .   S
    C93    C92       1.48922  1_554   S
    H48    C86       1.08913      .   S
    H51    C89       1.08921      .   S
    C134   O164      1.27936      .   S
    C134   O165      1.27911      .   S
    C134   C135      1.48843  1_554   S
    C86    C87       1.39064      .   S
    C89    C88       1.38993      .   S
    O164   Zn5       1.96042      .   S
    O165   Zn6       1.97832      .   S
    C87    H49       1.09054      .   S
    C87    C94       1.40704      .   S
    H29    C103      1.09064      .   S
    H41    C120      1.08878      .   S
    H30    C104      1.08896      .   S
    C88    H50       1.08877      .   S
    C88    C94       1.40585      .   S
    H40    C119      1.09035      .   S
    H35    C110      1.09045      .   S
    H34    C109      1.08912      .   S
    H45    C126      1.09046      .   S
    H44    C125      1.08887      .   S
    C94    C95       1.47686      .   S
    Zn5    O153      1.96965  1_565   S
    Zn5    O158      1.97749  1_655   S
    Zn5    O163      1.96126      .   S
    C103   C104      1.39180      .   S
    C103   C102      1.40739      .   S
    C104   C99       1.40310      .   S
    C110   C109      1.39104      .   S
    C110   C105      1.40744      .   S
    C109   C108      1.40292      .   S
    C120   C119      1.38985      .   S
    C120   C115      1.40219      .   S
    C119   C118      1.40618      .   S
    Zn6    O155      1.97472      .   S
    Zn6    O160      1.96551      .   S
    O153   C98       1.27863      .   S
    O158   C114      1.27891      .   S
    C126   C125      1.38907      .   S
    C126   C121      1.40631      .   S
    O155   C111      1.27912      .   S
    C125   C124      1.40218      .   S
    O160   C127      1.27816      .   S
    C98    C99       1.49172      .   S
    C98    O154      1.27839      .   S
    C105   C102      1.47819      .   S
    C105   C106      1.40729      .   S
    C102   C101      1.40754      .   S
    C99    C100      1.40253      .   S
    C108   C111      1.49235      .   S
    C108   C107      1.40331      .   S
    C114   C115      1.48956      .   S
    C114   O159      1.27541      .   S
    C111   O161      1.27925      .   S
    O163   Zn3       1.96682      .   S
    C115   C116      1.40210      .   S
    C95    C90       1.40662      .   S
    C95    C70       1.40731      .   S
    C118   C121      1.47602      .   S
    C118   C117      1.40642      .   S
    C121   C122      1.40584      .   S
    C124   C127      1.49024      .   S
    C124   C123      1.40206      .   S
    C127   O156      1.27814      .   S
    H25    C90       1.09010      .   S
    H15    C70       1.09008      .   S
    O156   Zn3       1.97121      .   S
    C90    C91       1.39038      .   S
    C70    C71       1.38994      .   S
    O154   Zn3       1.97892  1_545   S
    O159   Zn4       1.97978  1_455   S
    O161   Zn4       1.96954      .   S
    C106   C107      1.39039      .   S
    C106   H31       1.09064      .   S
    C123   C122      1.39105      .   S
    C123   H43       1.08908      .   S
    C107   H33       1.08892      .   S
    C122   H42       1.09061      .   S
    C100   C101      1.38947      .   S
    C100   H27       1.08886      .   S
    C101   H28       1.09035      .   S
    Zn3    O157      1.96672      .   S
    Zn4    O162      1.97400      .   S
    C116   C117      1.39050      .   S
    C116   H38       1.08927      .   S
    C117   H39       1.09056      .   S
    C91    H26       1.08900      .   S
    C91    C96       1.40341      .   S
    C71    H16       1.08893      .   S
    C71    C96       1.40342      .   S
    C96    C97       1.48993      .   S
    O157   C139      1.27918      .   S
    O162   C139      1.27904      .   S
    C139   C138      1.48901      .   S
    C97    O149      1.27956      .   S
    C97    O144      1.27878      .   S
    O149   Zn0       1.97103      .   S
    O144   Zn32      1.97713      .   S
    C138   C113      1.40327      .   S
    C138   C133      1.40338      .   S
    H37    C113      1.08901      .   S
    H47    C133      1.08887      .   S
    H18    C75       1.09056      .   S
    C113   C112      1.39024      .   S
    C133   C132      1.38962      .   S
    H17    C74       1.08924      .   S
    H8     C59       1.09037      .   S
    H12    C65       1.08899      .   S
    H11    C64       1.09066      .   S
    H7     C58       1.08890      .   S
    H21    C80       1.09060      .   S
    H22    C81       1.08896      .   S
    C75    C74       1.39035      .   S
    C75    C76       1.40652      .   S
    Zn0    O148      1.97239      .   S
    Zn0    O146      1.98028  1_545   S
    Zn0    O150      1.96226      .   S
    C74    C73       1.40208      .   S
    Zn32   O141      1.97925  1_455   S
    Zn32   O143      1.96756      .   S
    C65    C64       1.39093      .   S
    C65    C66       1.40335      .   S
    C59    C58       1.38983      .   S
    C59    C60       1.40758      .   S
    C64    C63       1.40746      .   S
    C58    C57       1.40251      .   S
    C80    C81       1.39047      .   S
    C80    C79       1.40580      .   S
    C81    C82       1.40242      .   S
    O148   C69       1.27905      .   S
    O146   C72       1.27569      .   S
    O141   C56       1.27854      .   S
    C112   H36       1.09013      .   S
    C112   C137      1.40711      .   S
    C132   H46       1.09007      .   S
    C132   C137      1.40640      .   S
    O143   C85       1.27789      .   S
    C85    C82       1.49001      .   S
    C85    O147      1.27817      .   S
    C82    C83       1.40194      .   S
    C79    C76       1.47589      .   S
    C79    C84       1.40637      .   S
    C137   C136      1.47622      .   S
    C76    C77       1.40620      .   S
    C73    C72       1.48931      .   S
    C73    C78       1.40225      .   S
    C69    C66       1.49266      .   S
    C69    O142      1.27992      .   S
    O150   Zn1       1.96010      .   S
    C72    O145      1.27906      .   S
    C66    C67       1.40313      .   S
    C60    C63       1.47877      .   S
    C60    C61       1.40751      .   S
    C63    C68       1.40752      .   S
    C57    C56       1.49255      .   S
    C57    C62       1.40317      .   S
    C56    O140      1.27864      .   S
    O147   Zn2       1.96709      .   S
    C83    C84       1.38960      .   S
    C83    H23       1.08898      .   S
    O142   Zn2       1.96981      .   S
    C84    H24       1.09048      .   S
    O145   Zn1       1.97613  1_565   S
    O140   Zn1       1.97187  1_655   S
    Zn2    O152      1.98282      .   S
    C77    C78       1.38989      .   S
    C77    H19       1.09034      .   S
    C67    C68       1.39089      .   S
    C67    H13       1.08903      .   S
    C78    H20       1.08882      .   S
    C68    H14       1.09045      .   S
    C61    C62       1.39198      .   S
    C61    H9        1.09068      .   S
    C62    H10       1.08900      .   S
    Zn1    O151      1.96398      .   S
    C136   C130      1.40566      .   S
    C136   C129      1.40690      .   S
    H54    C130      1.08884      .   S
    H53    C129      1.09054      .   S
    C130   C131      1.39004      .   S
    C129   C128      1.39014      .   S
    O152   C92       1.27948      .   S
    O151   C92       1.27998      .   S
    C131   H55       1.08923      .   S
    C131   C135      1.40363      .   S
    C128   H52       1.08912      .   S
    C128   C135      1.40302      .   S
    O150   Zn32      1.96347      .   S
    O150   Zn2       1.96955      .   S
    O163   Zn4       1.96861      .   S
    O163   Zn6       1.96973      .   S
