# CIF file generated by openbabel 2.4.90, see http://openbabel.sf.net
data_I
_chemical_name_common ''
_cell_length_a 17.233
_cell_length_b 17.256
_cell_length_c 17.407
_cell_angle_alpha 86.76
_cell_angle_beta 86.935
_cell_angle_gamma 89.302
_space_group_name_H-M_alt 'P 1'
_space_group_name_Hall 'P 1'
loop_
    _symmetry_equiv_pos_as_xyz
    x,y,z
loop_
    _atom_site_label
    _atom_site_type_symbol
    _atom_site_fract_x
    _atom_site_fract_y
    _atom_site_fract_z
    _atom_site_occupancy
    Zn0     Zn   0.20669   0.08188   0.65958   1.000
    Zn1     Zn   0.07960   0.07641   0.80329   1.000
    Zn2     Zn   0.20625   0.20639   0.79347   1.000
    Zn3     Zn   0.79312   0.92684   0.33595   1.000
    Zn4     Zn   0.91996   0.79403   0.34002   1.000
    Zn5     Zn   0.92386   0.92340   0.19713   1.000
    Zn6     Zn   0.79395   0.79685   0.20699   1.000
    Zn7     Zn   0.07578   0.20998   0.66603   1.000
    O8      O    0.14251   0.14353   0.73045   1.000
    O9      O    0.85754   0.85972   0.27016   1.000
loop_
    _geom_bond_atom_site_label_1
    _geom_bond_atom_site_label_2
    _geom_bond_distance
    _geom_bond_site_symmetry_2
    _ccdc_geom_bond_type
    Zn5    O9        1.96126      .   S
    O9     Zn3       1.96682      .   S
    Zn0    O8        1.96226      .   S
    O8     Zn1       1.96010      .   S
    O8     Zn7       1.96347      .   S
    O8     Zn2       1.96955      .   S
    O9     Zn4       1.96861      .   S
    O9     Zn6       1.96973      .   S
