# CIF file generated by openbabel 2.4.90, see http://openbabel.sf.net
data_I
_chemical_name_common ''
_cell_length_a 17.233
_cell_length_b 17.256
_cell_length_c 17.407
_cell_angle_alpha 86.76
_cell_angle_beta 86.935
_cell_angle_gamma 89.302
_space_group_name_H-M_alt 'P 1'
_space_group_name_Hall 'P 1'
loop_
    _symmetry_equiv_pos_as_xyz
    x,y,z
loop_
    _atom_site_label
    _atom_site_type_symbol
    _atom_site_fract_x
    _atom_site_fract_y
    _atom_site_fract_z
    _atom_site_occupancy
    N0      N    0.12708   0.14751   0.23072   1.000
    N1      N    0.87878   0.36026   0.26717   1.000
    N2      N    0.64182   0.12167   0.73261   1.000
    N3      N    0.35783   0.86967   0.27308   1.000
    N4      N    0.13581   0.64355   0.72727   1.000
    N5      N    0.85555   0.87234   0.76965   1.000
    Zr6     Zr   0.14217   0.14364   0.73056   1.000
    Zr7     Zr   0.85769   0.86017   0.27005   1.000
    O8      O    0.85737   0.86405   0.11425   1.000
    O9      O    0.85626   0.86302   0.42571   1.000
    O10     O    0.86364   0.70528   0.26988   1.000
    O11     O    0.86439   0.01518   0.26828   1.000
    O12     O    0.01265   0.86233   0.27041   1.000
    O13     O    0.70290   0.86335   0.27161   1.000
    O14     O    0.98714   0.13694   0.73234   1.000
    O15     O    0.29684   0.13729   0.73030   1.000
    O16     O    0.14083   0.98862   0.72999   1.000
    O17     O    0.14031   0.29854   0.72896   1.000
    O18     O    0.13757   0.14425   0.88624   1.000
    O19     O    0.13815   0.14586   0.57485   1.000
loop_
    _geom_bond_atom_site_label_1
    _geom_bond_atom_site_label_2
    _geom_bond_distance
    _geom_bond_site_symmetry_2
    _ccdc_geom_bond_type
    N5     O8        5.99388  1_556   S
    Zr7    O8        2.70935      .   S
    N5     O9        5.99753      .   S
    Zr7    O9        2.71156      .   S
    Zr7    O10       2.67371      .   S
    N1     O10       5.95893      .   S
    Zr7    O11       2.67711  1_565   S
    N1     O11       5.96175      .   S
    Zr7    O12       2.67163  1_655   S
    N3     O12       5.95405      .   S
    Zr7    O13       2.66604      .   S
    N3     O13       5.94495      .   S
    Zr6    O14       2.67390  1_455   S
    N2     O14       5.95980      .   S
    Zr6    O15       2.66621      .   S
    N2     O15       5.94992      .   S
    Zr6    O16       2.67601  1_545   S
    N4     O16       5.95909      .   S
    Zr6    O17       2.67140      .   S
    N4     O17       5.95143      .   S
    Zr6    O18       2.70738      .   S
    N0     O18       5.99293  1_554   S
    Zr6    O19       2.71311      .   S
    N0     O19       6.00194      .   S
