# CIF file generated by openbabel 2.4.90, see http://openbabel.sf.net
data_I
_chemical_name_common ''
_cell_length_a 17.233
_cell_length_b 17.256
_cell_length_c 17.407
_cell_angle_alpha 86.76
_cell_angle_beta 86.935
_cell_angle_gamma 89.302
_space_group_name_H-M_alt 'P 1'
_space_group_name_Hall 'P 1'
loop_
    _symmetry_equiv_pos_as_xyz
    x,y,z
loop_
    _atom_site_label
    _atom_site_type_symbol
    _atom_site_fract_x
    _atom_site_fract_y
    _atom_site_fract_z
    _atom_site_occupancy
    Zr0     Zr   0.07578   0.20998   0.66603   1.000
    Zr1     Zr   0.20669   0.08188   0.65958   1.000
    Zr2     Zr   0.07960   0.07641   0.80329   1.000
    Zr3     Zr   0.20625   0.20639   0.79347   1.000
    Zr4     Zr   0.79312   0.92684   0.33595   1.000
    Zr5     Zr   0.91996   0.79403   0.34002   1.000
    Zr6     Zr   0.92386   0.92340   0.19713   1.000
    Zr7     Zr   0.79395   0.79685   0.20699   1.000
    Zr8     Zr   0.14251   0.14353   0.73045   1.000
    Zr9     Zr   0.85754   0.85972   0.27016   1.000
    O10     O    0.89070   0.89156   0.23365   1.000
    O11     O    0.82533   0.89328   0.30306   1.000
    O12     O    0.17460   0.11271   0.69501   1.000
    O13     O    0.11106   0.10997   0.76687   1.000
    O14     O    0.10915   0.17675   0.69824   1.000
    O15     O    0.17438   0.17496   0.76196   1.000
    O16     O    0.88875   0.82687   0.30509   1.000
    O17     O    0.82575   0.82828   0.23857   1.000
    N18     N    0.12708   0.14751   0.23072   1.000
    O19     O    0.10731   0.17697   0.42042   1.000
    O20     O    0.16097   0.11918   0.41787   1.000
    O21     O    0.10843   0.11465   0.04421   1.000
    O22     O    0.15751   0.17508   0.03962   1.000
    N23     N    0.87878   0.36026   0.26717   1.000
    O24     O    0.89707   0.16976   0.23533   1.000
    O25     O    0.84513   0.17061   0.29769   1.000
    O26     O    0.84472   0.55111   0.23985   1.000
    O27     O    0.89447   0.54965   0.29956   1.000
    N28     N    0.64182   0.12167   0.73261   1.000
    O29     O    0.83271   0.10322   0.76464   1.000
    O30     O    0.83153   0.15727   0.70358   1.000
    O31     O    0.45117   0.15486   0.76048   1.000
    O32     O    0.45187   0.10703   0.69961   1.000
    N33     N    0.35783   0.86967   0.27308   1.000
    O34     O    0.54793   0.89566   0.29891   1.000
    O35     O    0.16850   0.89064   0.23926   1.000
    O36     O    0.16674   0.83834   0.30227   1.000
    O37     O    0.54830   0.83742   0.24742   1.000
    N38     N    0.13581   0.64355   0.72727   1.000
    O39     O    0.10926   0.45422   0.70177   1.000
    O40     O    0.11368   0.83243   0.76104   1.000
    O41     O    0.16531   0.83477   0.69778   1.000
    O42     O    0.16766   0.45268   0.75293   1.000
    N43     N    0.85555   0.87234   0.76965   1.000
    O44     O    0.82608   0.89293   0.58050   1.000
    O45     O    0.88360   0.83883   0.58224   1.000
    O46     O    0.88703   0.89284   0.95623   1.000
    O47     O    0.82709   0.84303   0.96067   1.000
loop_
    _geom_bond_atom_site_label_1
    _geom_bond_atom_site_label_2
    _geom_bond_distance
    _geom_bond_site_symmetry_2
    _ccdc_geom_bond_type
    Zr6    O10       0.98063      .   S
    Zr9    O10       0.98063      .   S
    Zr9    O11       0.98341      .   S
    Zr4    O11       0.98341      .   S
    Zr1    O12       0.98113      .   S
    Zr8    O12       0.98113      .   S
    Zr8    O13       0.98005      .   S
    Zr2    O13       0.98005      .   S
    Zr8    O14       0.98173      .   S
    Zr0    O14       0.98173      .   S
    Zr8    O15       0.98478      .   S
    Zr3    O15       0.98478      .   S
    Zr9    O16       0.98431      .   S
    Zr5    O16       0.98431      .   S
    Zr9    O17       0.98487      .   S
    Zr7    O17       0.98487      .   S
    N18    O19       3.36800      .   S
    Zr0    O19       4.34934      .   S
    N18    O20       3.34788      .   S
    Zr1    O20       4.33292      .   S
    N18    O21       3.36004      .   S
    Zr2    O21       4.33737  1_556   S
    N18    O22       3.34783      .   S
    Zr3    O22       4.32670  1_556   S
    N23    O24       3.37258      .   S
    Zr6    O24       4.35509  1_565   S
    N23    O25       3.33833      .   S
    Zr4    O25       4.31886  1_565   S
    N23    O26       3.35010      .   S
    Zr7    O26       4.33154      .   S
    N23    O27       3.36429      .   S
    Zr5    O27       4.34572      .   S
    N28    O29       3.37408      .   S
    Zr2    O29       4.35800  1_455   S
    N28    O30       3.34042      .   S
    Zr0    O30       4.32476  1_455   S
    N28    O31       3.34247      .   S
    Zr3    O31       4.31763      .   S
    N28    O32       3.36849      .   S
    Zr1    O32       4.34954      .   S
    N33    O34       3.36917      .   S
    Zr4    O34       4.35261      .   S
    N33    O35       3.35789      .   S
    Zr6    O35       4.34250  1_655   S
    N33    O36       3.35079      .   S
    Zr5    O36       4.33900  1_655   S
    N33    O37       3.33310      .   S
    Zr7    O37       4.30945      .   S
    N38    O39       3.36194      .   S
    Zr0    O39       4.34474      .   S
    N38    O40       3.35802      .   S
    Zr2    O40       4.34226  1_545   S
    N38    O41       3.35128      .   S
    Zr1    O41       4.34023  1_545   S
    N38    O42       3.34144      .   S
    Zr3    O42       4.31787      .   S
    N43    O44       3.35668      .   S
    Zr4    O44       4.33061      .   S
    N43    O45       3.35384      .   S
    Zr5    O45       4.34059      .   S
    N43    O46       3.36022      .   S
    Zr6    O46       4.33680  1_554   S
    N43    O47       3.34580      .   S
    Zr7    O47       4.32535  1_554   S
