# CIF file generated by openbabel 2.4.90, see http://openbabel.sf.net
data_I
_chemical_name_common ''
_cell_length_a 17.233
_cell_length_b 17.256
_cell_length_c 17.407
_cell_angle_alpha 86.76
_cell_angle_beta 86.935
_cell_angle_gamma 89.302
_space_group_name_H-M_alt 'P 1'
_space_group_name_Hall 'P 1'
loop_
    _symmetry_equiv_pos_as_xyz
    x,y,z
loop_
    _atom_site_label
    _atom_site_type_symbol
    _atom_site_fract_x
    _atom_site_fract_y
    _atom_site_fract_z
    _atom_site_occupancy
    N0      N    0.12708   0.14751   0.23072   1.000
    N1      N    0.87878   0.36026   0.26717   1.000
    N2      N    0.64182   0.12167   0.73261   1.000
    N3      N    0.35783   0.86967   0.27308   1.000
    N4      N    0.13581   0.64355   0.72727   1.000
    N5      N    0.85555   0.87234   0.76965   1.000
    Zr6     Zr   0.14217   0.14364   0.73056   1.000
    O7      O    0.98685   0.15046   0.71707   1.000
    O8      O    0.12571   0.29893   0.71616   1.000
    O9      O    0.12474   0.16030   0.57549   1.000
    O10     O    0.15374   0.98920   0.71417   1.000
    O11     O    0.29702   0.12533   0.71509   1.000
    O12     O    0.15157   0.13141   0.57422   1.000
    O13     O    0.12793   0.98803   0.74580   1.000
    O14     O    0.98744   0.12343   0.74760   1.000
    O15     O    0.12530   0.12915   0.88739   1.000
    O16     O    0.15492   0.29816   0.74175   1.000
    O17     O    0.29667   0.14925   0.74552   1.000
    O18     O    0.14984   0.15936   0.88509   1.000
    Zr19    Zr   0.85769   0.86017   0.27005   1.000
    O20     O    0.84239   0.85160   0.11536   1.000
    O21     O    0.85120   0.70564   0.25495   1.000
    O22     O    0.70299   0.84879   0.25873   1.000
    O23     O    0.84188   0.87655   0.42527   1.000
    O24     O    0.85141   0.01539   0.28387   1.000
    O25     O    0.70281   0.87791   0.28448   1.000
    O26     O    0.87064   0.84950   0.42614   1.000
    O27     O    0.01221   0.84926   0.28616   1.000
    O28     O    0.87608   0.70491   0.28481   1.000
    O29     O    0.87236   0.87650   0.11314   1.000
    O30     O    0.87738   0.01496   0.25269   1.000
    O31     O    0.01309   0.87541   0.25465   1.000
loop_
    _geom_bond_atom_site_label_1
    _geom_bond_atom_site_label_2
    _geom_bond_distance
    _geom_bond_site_symmetry_2
    _ccdc_geom_bond_type
    Zr6    O7        2.69995  1_455   S
    N2     O7        5.96313      .   S
    Zr6    O8        2.69018      .   S
    N4     O8        5.96579      .   S
    Zr6    O9        2.73057      .   S
    N0     O9        6.01587      .   S
    Zr6    O10       2.70001  1_545   S
    N4     O10       5.96720      .   S
    Zr6    O11       2.68431      .   S
    N2     O11       5.96540      .   S
    Zr6    O12       2.73762      .   S
    N0     O12       6.00704      .   S
    Zr6    O13       2.69612  1_545   S
    N4     O13       5.97085      .   S
    Zr6    O14       2.69183  1_455   S
    N2     O14       5.97626      .   S
    Zr6    O15       2.72739      .   S
    N0     O15       6.00448  1_554   S
    Zr6    O16       2.69688      .   S
    N4     O16       5.95700      .   S
    Zr6    O17       2.69249      .   S
    N2     O17       5.95438      .   S
    Zr6    O18       2.72909      .   S
    N0     O18       6.00030  1_554   S
    Zr19   O20       2.73202      .   S
    N5     O20       6.00052  1_556   S
    Zr19   O21       2.69843      .   S
    N1     O21       5.96580      .   S
    Zr19   O22       2.69394      .   S
    N3     O22       5.94741      .   S
    Zr19   O23       2.73138      .   S
    N5     O23       6.00802      .   S
    Zr19   O24       2.70315  1_565   S
    N1     O24       5.96486      .   S
    Zr19   O25       2.68283      .   S
    N3     O25       5.96258      .   S
    Zr19   O26       2.73380      .   S
    N5     O26       6.00613      .   S
    Zr19   O27       2.69578  1_655   S
    N3     O27       5.96214      .   S
    Zr19   O28       2.69339      .   S
    N1     O28       5.97206      .   S
    Zr19   O29       2.72843      .   S
    N5     O29       6.00618  1_556   S
    Zr19   O30       2.69471  1_565   S
    N1     O30       5.97830      .   S
    Zr19   O31       2.69183  1_655   S
    N3     O31       5.96593      .   S
