# CIF file generated by openbabel 2.4.90, see http://openbabel.sf.net
data_I
_chemical_name_common ''
_cell_length_a 22.087
_cell_length_b 17.892
_cell_length_c 20.541
_cell_angle_alpha 110.258
_cell_angle_beta 93.396
_cell_angle_gamma 89.007
_space_group_name_H-M_alt 'P 1'
_space_group_name_Hall 'P 1'
loop_
    _symmetry_equiv_pos_as_xyz
    x,y,z
loop_
    _atom_site_label
    _atom_site_type_symbol
    _atom_site_fract_x
    _atom_site_fract_y
    _atom_site_fract_z
    _atom_site_occupancy
    Zn0     Zn   0.59739   0.43772   0.22694   1.000
    Zn1     Zn   0.09315   0.54986   0.15480   1.000
    Zn2     Zn   0.59328   0.54975   0.15431   1.000
    Zn3     Zn   0.06958   0.93759   0.72224   1.000
    Zn4     Zn   0.57039   0.93744   0.72210   1.000
    Zn5     Zn   0.06343   0.04990   0.64984   1.000
    Zn6     Zn   0.56264   0.04977   0.64952   1.000
    Zn7     Zn   0.40263   0.56231   0.77300   1.000
    Zn8     Zn   0.90278   0.56191   0.77269   1.000
    Zn9     Zn   0.40733   0.45032   0.84572   1.000
    Zn10    Zn   0.90688   0.45014   0.84518   1.000
    Zn11    Zn   0.42963   0.06258   0.27789   1.000
    Zn12    Zn   0.93043   0.06244   0.27775   1.000
    Zn13    Zn   0.43737   0.95025   0.35047   1.000
    Zn14    Zn   0.93659   0.95013   0.35015   1.000
    Zn15    Zn   0.09769   0.43813   0.22735   1.000
loop_
    _geom_bond_atom_site_label_1
    _geom_bond_atom_site_label_2
    _geom_bond_distance
    _geom_bond_site_symmetry_2
    _ccdc_geom_bond_type
    Zn15   Zn1       2.87499      .   S
    Zn0    Zn2       2.88099      .   S
    Zn3    Zn5       2.88166  1_565   S
    Zn4    Zn6       2.88514  1_565   S
    Zn7    Zn9       2.88167      .   S
    Zn8    Zn10      2.87481      .   S
    Zn11   Zn13      2.88512  1_545   S
    Zn12   Zn14      2.88179  1_545   S
