# CIF file generated by openbabel 2.4.90, see http://openbabel.sf.net
data_I
_chemical_name_common ''
_cell_length_a 22.087
_cell_length_b 17.892
_cell_length_c 20.541
_cell_angle_alpha 110.258
_cell_angle_beta 93.396
_cell_angle_gamma 89.007
_space_group_name_H-M_alt 'P 1'
_space_group_name_Hall 'P 1'
loop_
    _symmetry_equiv_pos_as_xyz
    x,y,z
loop_
    _atom_site_label
    _atom_site_type_symbol
    _atom_site_fract_x
    _atom_site_fract_y
    _atom_site_fract_z
    _atom_site_occupancy
    Zr0     Zr   0.09769   0.43813   0.22735   1.000
    Zr1     Zr   0.59739   0.43772   0.22694   1.000
    Zr2     Zr   0.09315   0.54986   0.15480   1.000
    Zr3     Zr   0.59328   0.54975   0.15431   1.000
    Zr4     Zr   0.06958   0.93759   0.72224   1.000
    Zr5     Zr   0.57039   0.93744   0.72210   1.000
    Zr6     Zr   0.06343   0.04990   0.64984   1.000
    Zr7     Zr   0.56264   0.04977   0.64952   1.000
    Zr8     Zr   0.40263   0.56231   0.77300   1.000
    Zr9     Zr   0.90278   0.56191   0.77269   1.000
    Zr10    Zr   0.40733   0.45032   0.84572   1.000
    Zr11    Zr   0.90688   0.45014   0.84518   1.000
    Zr12    Zr   0.42963   0.06258   0.27789   1.000
    Zr13    Zr   0.93043   0.06244   0.27775   1.000
    Zr14    Zr   0.43737   0.95025   0.35047   1.000
    Zr15    Zr   0.93659   0.95013   0.35015   1.000
    O16     O    0.09542   0.49400   0.19108   1.000
    O17     O    0.59534   0.49373   0.19063   1.000
    O18     O    0.06651   0.99375   0.68604   1.000
    O19     O    0.56652   0.99360   0.68581   1.000
    O20     O    0.40498   0.50632   0.80936   1.000
    O21     O    0.90483   0.50603   0.80894   1.000
    O22     O    0.43350   0.00642   0.31418   1.000
    O23     O    0.93351   0.00628   0.31395   1.000
    N24     N    0.34473   0.48843   0.19304   1.000
    O25     O    0.24217   0.51819   0.17918   1.000
    O26     O    0.44592   0.51167   0.17422   1.000
    O27     O    0.24359   0.46295   0.20535   1.000
    O28     O    0.44779   0.46548   0.21026   1.000
    N29     N    0.07579   0.74385   0.43782   1.000
    O30     O    0.07041   0.87034   0.52303   1.000
    O31     O    0.08188   0.66728   0.32064   1.000
    O32     O    0.06880   0.82028   0.55504   1.000
    O33     O    0.08833   0.61796   0.35325   1.000
    N34     N    0.94030   0.24779   0.05464   1.000
    O35     O    0.93644   0.17293   0.15145   1.000
    O36     O    0.92517   0.33024   0.96384   1.000
    N37     N    0.57564   0.74400   0.43726   1.000
    O38     O    0.56981   0.87033   0.52263   1.000
    O39     O    0.58784   0.61797   0.35254   1.000
    O40     O    0.58208   0.66765   0.32006   1.000
    O41     O    0.56914   0.82018   0.55471   1.000
    N42     N    0.68376   0.00711   0.31362   1.000
    O43     O    0.58377   0.98225   0.33197   1.000
    O44     O    0.57984   0.02812   0.29563   1.000
    O45     O    0.78414   0.03547   0.29969   1.000
    O46     O    0.78699   0.98105   0.32720   1.000
    N47     N    0.11097   0.25614   0.45261   1.000
    O48     O    0.10668   0.32918   0.35492   1.000
    O49     O    0.08945   0.17225   0.53795   1.000
    N50     N    0.41339   0.75519   0.06347   1.000
    O51     O    0.40801   0.62919   0.97560   1.000
    O52     O    0.41751   0.88199   0.14997   1.000
    O53     O    0.42548   0.83193   0.18185   1.000
    O54     O    0.41204   0.67936   0.94432   1.000
    N55     N    0.18365   0.00741   0.31451   1.000
    O56     O    0.28381   0.03570   0.30030   1.000
    O57     O    0.08334   0.98259   0.33248   1.000
    O58     O    0.28718   0.98150   0.32817   1.000
    O59     O    0.08005   0.02817   0.29597   1.000
    N60     N    0.31626   0.99291   0.68636   1.000
    O61     O    0.41625   0.01777   0.66801   1.000
    O62     O    0.42018   0.97190   0.70434   1.000
    O63     O    0.21588   0.96455   0.70029   1.000
    O64     O    0.21303   0.01897   0.67278   1.000
    N65     N    0.91427   0.75506   0.06303   1.000
    O66     O    0.91279   0.67922   0.94391   1.000
    O67     O    0.90848   0.62909   0.97506   1.000
    O68     O    0.92595   0.83174   0.18145   1.000
    O69     O    0.91839   0.88183   0.14967   1.000
    N70     N    0.88909   0.74387   0.54734   1.000
    O71     O    0.89352   0.67084   0.64505   1.000
    O72     O    0.91059   0.82777   0.46202   1.000
    N73     N    0.55900   0.75233   0.94516   1.000
    O74     O    0.57451   0.66977   0.03581   1.000
    O75     O    0.56346   0.82714   0.84842   1.000
    N76     N    0.81637   0.99262   0.68548   1.000
    O77     O    0.71621   0.96433   0.69967   1.000
    O78     O    0.91667   0.01744   0.66751   1.000
    O79     O    0.71284   0.01852   0.67182   1.000
    O80     O    0.91997   0.97186   0.70402   1.000
    N81     N    0.58664   0.24485   0.93647   1.000
    O82     O    0.59221   0.37085   0.02438   1.000
    O83     O    0.57455   0.16810   0.81812   1.000
    O84     O    0.58800   0.32068   0.05563   1.000
    O85     O    0.58252   0.11804   0.84999   1.000
    N86     N    0.42439   0.25602   0.56271   1.000
    O87     O    0.43088   0.17984   0.44527   1.000
    O88     O    0.41219   0.38206   0.64743   1.000
    O89     O    0.41812   0.33239   0.67993   1.000
    O90     O    0.43021   0.12969   0.47735   1.000
    N91     N    0.05942   0.75225   0.94536   1.000
    O92     O    0.07471   0.66979   0.03615   1.000
    O93     O    0.06344   0.82711   0.84855   1.000
    N94     N    0.61128   0.25587   0.45245   1.000
    O95     O    0.58934   0.17203   0.53771   1.000
    O96     O    0.60680   0.32894   0.35476   1.000
    N97     N    0.38876   0.74415   0.54752   1.000
    O98     O    0.41068   0.82799   0.46227   1.000
    O99     O    0.39323   0.67108   0.64519   1.000
    N100    N    0.44105   0.24769   0.05483   1.000
    O101    O    0.42572   0.33026   0.96420   1.000
    O102    O    0.43658   0.17288   0.15157   1.000
    N103    N    0.92424   0.25618   0.56218   1.000
    O104    O    0.92961   0.12969   0.47696   1.000
    O105    O    0.91815   0.33273   0.67936   1.000
    O106    O    0.91183   0.38208   0.64675   1.000
    O107    O    0.93122   0.17975   0.44495   1.000
    N108    N    0.84443   0.48890   0.19337   1.000
    O109    O    0.94550   0.51205   0.17431   1.000
    O110    O    0.74199   0.51822   0.17920   1.000
    O111    O    0.74346   0.46304   0.20560   1.000
    O112    O    0.94664   0.46648   0.21078   1.000
    N113    N    0.08577   0.24497   0.93691   1.000
    O114    O    0.08738   0.32081   0.05607   1.000
    O115    O    0.09156   0.37093   0.02490   1.000
    O116    O    0.08164   0.11821   0.85029   1.000
    O117    O    0.07408   0.16829   0.81849   1.000
    N118    N    0.65543   0.51164   0.80691   1.000
    O119    O    0.55437   0.48840   0.82576   1.000
    O120    O    0.55231   0.53457   0.78970   1.000
    O121    O    0.75793   0.48186   0.82080   1.000
    O122    O    0.75666   0.53708   0.79461   1.000
    N123    N    0.15543   0.51107   0.80665   1.000
    O124    O    0.25816   0.48181   0.82084   1.000
    O125    O    0.25650   0.53696   0.79439   1.000
    O126    O    0.05437   0.48794   0.82567   1.000
    O127    O    0.05226   0.53352   0.78924   1.000
loop_
    _geom_bond_atom_site_label_1
    _geom_bond_atom_site_label_2
    _geom_bond_distance
    _geom_bond_site_symmetry_2
    _ccdc_geom_bond_type
    Zr0    O16       1.43750      .   S
    Zr2    O16       1.43750      .   S
    Zr1    O17       1.44049      .   S
    Zr3    O17       1.44049      .   S
    Zr4    O18       1.44083      .   S
    Zr6    O18       1.44083  1_545   S
    Zr5    O19       1.44257      .   S
    Zr7    O19       1.44257  1_545   S
    Zr8    O20       1.44084      .   S
    Zr10   O20       1.44084      .   S
    Zr9    O21       1.43740      .   S
    Zr11   O21       1.43740      .   S
    Zr12   O22       1.44256      .   S
    Zr14   O22       1.44256  1_565   S
    Zr13   O23       1.44089      .   S
    Zr15   O23       1.44089  1_565   S
    N24    O25       2.34147      .   S
    Zr2    O25       3.36771      .   S
    N24    O26       2.35874      .   S
    Zr3    O26       3.41356      .   S
    N24    O27       2.33311      .   S
    Zr0    O27       3.33882      .   S
    N24    O28       2.33410      .   S
    Zr1    O28       3.34807      .   S
    N29    O30       2.33920      .   S
    Zr6    O30       3.37131  1_545   S
    N29    O31       2.33173      .   S
    Zr2    O31       3.34756      .   S
    N29    O32       2.33420      .   S
    Zr4    O32       3.34712      .   S
    N29    O33       2.34387      .   S
    Zr0    O33       3.37055      .   S
    N34    O35       2.76122      .   S
    Zr13   O35       3.77590      .   S
    N34    O36       2.75329  1_554   S
    Zr11   O36       3.76577      .   S
    N37    O38       2.33939      .   S
    Zr7    O38       3.37080  1_545   S
    N37    O39       2.34582      .   S
    Zr1    O39       3.37344      .   S
    N37    O40       2.33207      .   S
    Zr3    O40       3.34826      .   S
    N37    O41       2.33574      .   S
    Zr5    O41       3.34967      .   S
    N42    O43       2.33798  1_545   S
    Zr14   O43       3.35964      .   S
    N42    O44       2.34767      .   S
    Zr12   O44       3.38559      .   S
    N42    O45       2.33881      .   S
    Zr13   O45       3.35463      .   S
    N42    O46       2.33913  1_545   S
    Zr15   O46       3.37339      .   S
    N47    O48       2.74463      .   S
    Zr0    O48       3.76403      .   S
    N47    O49       2.73814      .   S
    Zr6    O49       3.75346      .   S
    N50    O51       2.34952  1_554   S
    Zr10   O51       3.38290      .   S
    N50    O52       2.34717      .   S
    Zr12   O52       3.38868  1_545   S
    N50    O53       2.34364      .   S
    Zr14   O53       3.37368      .   S
    N50    O54       2.35058  1_554   S
    Zr8    O54       3.41139      .   S
    N55    O56       2.33518      .   S
    Zr12   O56       3.34645      .   S
    N55    O57       2.34221  1_545   S
    Zr15   O57       3.36541  1_655   S
    N55    O58       2.34523  1_545   S
    Zr14   O58       3.38530      .   S
    N55    O59       2.34181      .   S
    Zr13   O59       3.37312  1_655   S
    N60    O61       2.33795  1_565   S
    Zr7    O61       3.35959      .   S
    N60    O62       2.34764      .   S
    Zr5    O62       3.38561      .   S
    N60    O63       2.33884      .   S
    Zr4    O63       3.35463      .   S
    N60    O64       2.33912  1_565   S
    Zr6    O64       3.37342      .   S
    N65    O66       2.34988  1_554   S
    Zr9    O66       3.41109      .   S
    N65    O67       2.35023  1_554   S
    Zr11   O67       3.38336      .   S
    N65    O68       2.34371      .   S
    Zr15   O68       3.37459      .   S
    N65    O69       2.34797      .   S
    Zr13   O69       3.39038  1_545   S
    N70    O71       2.74472      .   S
    Zr9    O71       3.76505      .   S
    N70    O72       2.73775      .   S
    Zr15   O72       3.75318      .   S
    N73    O74       2.75270  1_556   S
    Zr3    O74       3.76547      .   S
    N73    O75       2.76041      .   S
    Zr5    O75       3.77545      .   S
    N76    O77       2.33509      .   S
    Zr5    O77       3.34653      .   S
    N76    O78       2.34221  1_565   S
    Zr6    O78       3.36544  1_455   S
    N76    O79       2.34521  1_565   S
    Zr7    O79       3.38525      .   S
    N76    O80       2.34183      .   S
    Zr4    O80       3.37313  1_455   S
    N81    O82       2.34999  1_556   S
    Zr3    O82       3.38356      .   S
    N81    O83       2.34324      .   S
    Zr7    O83       3.37331      .   S
    N81    O84       2.35083  1_556   S
    Zr1    O84       3.41114      .   S
    N81    O85       2.34701      .   S
    Zr5    O85       3.38859  1_565   S
    N86    O87       2.33555      .   S
    Zr12   O87       3.34948      .   S
    N86    O88       2.34586      .   S
    Zr8    O88       3.37333      .   S
    N86    O89       2.33197      .   S
    Zr10   O89       3.34808      .   S
    N86    O90       2.33929      .   S
    Zr14   O90       3.37066  1_565   S
    N91    O92       2.75361  1_556   S
    Zr2    O92       3.76602      .   S
    N91    O93       2.76155      .   S
    Zr4    O93       3.77626      .   S
    N94    O95       2.73808      .   S
    Zr7    O95       3.75398      .   S
    N94    O96       2.74483      .   S
    Zr1    O96       3.76625      .   S
    N97    O98       2.73790      .   S
    Zr14   O98       3.75380      .   S
    N97    O99       2.74432      .   S
    Zr8    O99       3.76601      .   S
    N100   O101      2.75239  1_554   S
    Zr10   O101      3.76494      .   S
    N100   O102      2.76049      .   S
    Zr12   O102      3.77545      .   S
    N103   O104      2.33919      .   S
    Zr15   O104      3.37133  1_565   S
    N103   O105      2.33165      .   S
    Zr11   O105      3.34728      .   S
    N103   O106      2.34361      .   S
    Zr9    O106      3.37044      .   S
    N103   O107      2.33417      .   S
    Zr13   O107      3.34718      .   S
    N108   O109      2.35716      .   S
    Zr2    O109      3.41647  1_455   S
    N108   O110      2.33781      .   S
    Zr3    O110      3.36228      .   S
    N108   O111      2.33103      .   S
    Zr1    O111      3.34080      .   S
    N108   O112      2.31455      .   S
    Zr0    O112      3.38086  1_455   S
    N113   O114      2.35060  1_556   S
    Zr0    O114      3.41227      .   S
    N113   O115      2.35036  1_556   S
    Zr2    O115      3.38338      .   S
    N113   O116      2.34770      .   S
    Zr4    O116      3.39009  1_565   S
    N113   O117      2.34356      .   S
    Zr6    O117      3.37379      .   S
    N118   O119      2.35601      .   S
    Zr10   O119      3.40692      .   S
    N118   O120      2.33513      .   S
    Zr8    O120      3.34974      .   S
    N118   O121      2.34062      .   S
    Zr11   O121      3.36624      .   S
    N118   O122      2.33504      .   S
    Zr9    O122      3.34307      .   S
    N123   O124      2.34388      .   S
    Zr10   O124      3.37187      .   S
    N123   O125      2.33342      .   S
    Zr8    O125      3.34249      .   S
    N123   O126      2.35666      .   S
    Zr11   O126      3.41303  1_655   S
    N123   O127      2.33519      .   S
    Zr9    O127      3.34698  1_655   S
