# CIF file generated by openbabel 2.4.90, see http://openbabel.sf.net
data_I
_chemical_name_common ''
_cell_length_a 17.293
_cell_length_b 13.056
_cell_length_c 15.041
_cell_angle_alpha 64.208
_cell_angle_beta 83.189
_cell_angle_gamma 75.681
_space_group_name_H-M_alt 'P 1'
_space_group_name_Hall 'P 1'
loop_
    _symmetry_equiv_pos_as_xyz
    x,y,z
loop_
    _atom_site_label
    _atom_site_type_symbol
    _atom_site_fract_x
    _atom_site_fract_y
    _atom_site_fract_z
    _atom_site_occupancy
    Zn0     Zn   0.89704   0.09772   0.81991   1.000
    Zn1     Zn   0.15319   0.91080   0.18159   1.000
    Zn2     Zn   0.65320   0.91080   0.18159   1.000
    Zn3     Zn   0.39703   0.09772   0.81991   1.000
    C4      C    0.99715   0.05455   0.67100   1.000
    C5      C    0.49716   0.05452   0.67180   1.000
    C6      C    0.18318   0.11158   0.13800   1.000
    C7      C    0.68320   0.11158   0.13803   1.000
    C8      C    0.25165   0.72166   0.32720   1.000
    C9      C    0.75166   0.72167   0.32721   1.000
    C10     C    0.42867   0.25385   0.86332   1.000
    C11     C    0.92869   0.25385   0.86332   1.000
    O12     O    0.00000   0.06216   0.75500   1.000
    O13     O    0.50001   0.06216   0.75500   1.000
    O14     O    0.43503   0.05496   0.63644   1.000
    O15     O    0.93505   0.05495   0.63644   1.000
    O16     O    0.17715   0.06570   0.07866   1.000
    O17     O    0.67717   0.06570   0.07865   1.000
    O18     O    0.17026   0.06192   0.22966   1.000
    O19     O    0.67027   0.06192   0.22966   1.000
    O20     O    0.25595   0.81178   0.24350   1.000
    O21     O    0.75596   0.81178   0.24358   1.000
    O22     O    0.18892   0.68658   0.36272   1.000
    O23     O    0.68893   0.68656   0.36272   1.000
    O24     O    0.42344   0.14773   0.92199   1.000
    O25     O    0.92346   0.14773   0.92000   1.000
    O26     O    0.41366   0.29792   0.77253   1.000
    O27     O    0.91367   0.29792   0.77253   1.000
    Ts28    Ts   0.88808   0.04304   0.84607   1.000
    Ts29    Ts   0.86099   0.12592   0.79731   1.000
    Ts30    Ts   0.14384   0.88304   0.15511   1.000
    Ts31    Ts   0.11666   0.91669   0.20435   1.000
    Ts32    Ts   0.61667   0.91669   0.20435   1.000
    Ts33    Ts   0.64386   0.88304   0.15511   1.000
    Ts34    Ts   0.36097   0.12592   0.79731   1.000
    Ts35    Ts   0.38807   0.04304   0.84607   1.000
    Og36    Og   0.02343   0.05094   0.65358   1.000
    Og37    Og   0.52344   0.05094   0.65411   1.000
    Og38    Og   0.19157   0.14957   0.12403   1.000
    Og39    Og   0.69159   0.14957   0.12405   1.000
    Og40    Og   0.27754   0.70083   0.34495   1.000
    Og41    Og   0.77755   0.70082   0.34495   1.000
    Og42    Og   0.43766   0.27735   0.87721   1.000
    Og43    Og   0.93767   0.27736   0.87721   1.000
loop_
    _geom_bond_atom_site_label_1
    _geom_bond_atom_site_label_2
    _geom_bond_distance
    _geom_bond_site_symmetry_2
    _ccdc_geom_bond_type
    O17    C7        1.29847      .   S
    O17    Zn2       2.04853  1_545   S
    O16    C6        1.29795      .   S
    O16    Zn1       2.04848  1_545   S
    C6     O18       1.26165      .   S
    C7     O19       1.26127      .   S
    Zn2    O21       1.97642      .   S
    Zn1    O20       1.97610      .   S
    O20    C8        1.30648      .   S
    O21    C9        1.30579      .   S
    C8     O22       1.25202      .   S
    C9     O23       1.25201      .   S
    O15    C4        1.24533      .   S
    O14    C5        1.25192      .   S
    C4     O12       1.31719  1_655   S
    C5     O13       1.30539      .   S
    O12    Zn0       1.97789  1_455   S
    O13    Zn3       1.97823      .   S
    O26    C10       1.26084      .   S
    O27    C11       1.26086      .   S
    Zn3    O24       2.04420      .   S
    Zn0    O25       2.01680      .   S
    C10    O24       1.29829      .   S
    C11    O25       1.29243      .   S
    Zn0    Ts28      0.69590      .   S
    Zn0    Ts29      0.68389      .   S
    Zn1    Ts30      0.69706      .   S
    Zn1    Ts31      0.68533      .   S
    Zn2    Ts32      0.68532      .   S
    Zn2    Ts33      0.69709      .   S
    Zn3    Ts34      0.68389      .   S
    Zn3    Ts35      0.69589      .   S
    C4     Og36      0.49927  1_655   S
    C5     Og37      0.50109      .   S
    C6     Og38      0.49885      .   S
    C7     Og39      0.49884      .   S
    C8     Og40      0.50064      .   S
    C9     Og41      0.50065      .   S
    C10    Og42      0.49898      .   S
    C11    Og43      0.49897      .   S
