# CIF file generated by openbabel 2.4.90, see http://openbabel.sf.net
data_I
_chemical_name_common ''
_cell_length_a 17.293
_cell_length_b 13.056
_cell_length_c 15.041
_cell_angle_alpha 64.208
_cell_angle_beta 83.189
_cell_angle_gamma 75.681
_space_group_name_H-M_alt 'P 1'
_space_group_name_Hall 'P 1'
loop_
    _symmetry_equiv_pos_as_xyz
    x,y,z
loop_
    _atom_site_label
    _atom_site_type_symbol
    _atom_site_fract_x
    _atom_site_fract_y
    _atom_site_fract_z
    _atom_site_occupancy
    Zn0     Zn   0.89704   0.09772   0.81991   1.000
    Zn1     Zn   0.15319   0.91080   0.18159   1.000
    Zn2     Zn   0.65320   0.91080   0.18159   1.000
    Zn3     Zn   0.39703   0.09772   0.81991   1.000
    C4      C    0.99715   0.05455   0.67100   1.000
    C5      C    0.49716   0.05452   0.67180   1.000
    C6      C    0.18318   0.11158   0.13800   1.000
    C7      C    0.68320   0.11158   0.13803   1.000
    C8      C    0.25165   0.72166   0.32720   1.000
    C9      C    0.75166   0.72167   0.32721   1.000
    C10     C    0.42867   0.25385   0.86332   1.000
    C11     C    0.92869   0.25385   0.86332   1.000
    O12     O    0.00000   0.06216   0.75500   1.000
    O13     O    0.50001   0.06216   0.75500   1.000
    O14     O    0.43503   0.05496   0.63644   1.000
    O15     O    0.93505   0.05495   0.63644   1.000
    O16     O    0.17715   0.06570   0.07866   1.000
    O17     O    0.67717   0.06570   0.07865   1.000
    O18     O    0.17026   0.06192   0.22966   1.000
    O19     O    0.67027   0.06192   0.22966   1.000
    O20     O    0.25595   0.81178   0.24350   1.000
    O21     O    0.75596   0.81178   0.24358   1.000
    O22     O    0.18892   0.68658   0.36272   1.000
    O23     O    0.68893   0.68656   0.36272   1.000
    O24     O    0.42344   0.14773   0.92199   1.000
    O25     O    0.92346   0.14773   0.92000   1.000
    O26     O    0.41366   0.29792   0.77253   1.000
    O27     O    0.91367   0.29792   0.77253   1.000
loop_
    _geom_bond_atom_site_label_1
    _geom_bond_atom_site_label_2
    _geom_bond_distance
    _geom_bond_site_symmetry_2
    _ccdc_geom_bond_type
    O17    C7        1.29847      .   S
    O17    Zn2       2.04853  1_545   S
    O16    C6        1.29795      .   S
    O16    Zn1       2.04848  1_545   S
    C6     O18       1.26165      .   S
    C7     O19       1.26127      .   S
    Zn2    O21       1.97642      .   S
    Zn1    O20       1.97610      .   S
    O20    C8        1.30648      .   S
    O21    C9        1.30579      .   S
    C8     O22       1.25202      .   S
    C9     O23       1.25201      .   S
    O15    C4        1.24533      .   S
    O14    C5        1.25192      .   S
    C4     O12       1.31719  1_655   S
    C5     O13       1.30539      .   S
    O12    Zn0       1.97789  1_455   S
    O13    Zn3       1.97823      .   S
    O26    C10       1.26084      .   S
    O27    C11       1.26086      .   S
    Zn3    O24       2.04420      .   S
    Zn0    O25       2.01680      .   S
    C10    O24       1.29829      .   S
    C11    O25       1.29243      .   S
