# CIF file generated by openbabel 2.4.90, see http://openbabel.sf.net
data_I
_chemical_name_common ''
_cell_length_a 14.678
_cell_length_b 21.376
_cell_length_c 21.376
_cell_angle_alpha 83.236
_cell_angle_beta 69.927
_cell_angle_gamma 69.929
_space_group_name_H-M_alt 'P 1'
_space_group_name_Hall 'P 1'
loop_
    _symmetry_equiv_pos_as_xyz
    x,y,z
loop_
    _atom_site_label
    _atom_site_type_symbol
    _atom_site_fract_x
    _atom_site_fract_y
    _atom_site_fract_z
    _atom_site_occupancy
    Mc0     Mc   0.09398   0.95290   0.19342   1.000
    Mc1     Mc   0.88468   0.94356   0.20286   1.000
    Mc2     Mc   0.99667   0.82104   0.09081   1.000
    Mc3     Mc   0.21632   0.84072   0.07097   1.000
    Mc4     Mc   0.18222   0.90924   0.32055   1.000
    Mc5     Mc   0.95284   0.80706   0.45300   1.000
    Mc6     Mc   0.94231   0.92990   0.34123   1.000
    Mc7     Mc   0.17197   0.79713   0.44305   1.000
    Mc8     Mc   0.88481   0.94326   0.70310   1.000
    Mc9     Mc   0.21627   0.84071   0.57074   1.000
    Mc10    Mc   0.09416   0.95268   0.69346   1.000
    Mc11    Mc   0.99684   0.82068   0.59100   1.000
    Mc12    Mc   0.68256   0.40898   0.82069   1.000
    Mc13    Mc   0.45315   0.30655   0.95251   1.000
    Mc14    Mc   0.44316   0.42929   0.84059   1.000
    Mc15    Mc   0.67186   0.29691   0.94328   1.000
    Mc16    Mc   0.44273   0.42936   0.34110   1.000
    Mc17    Mc   0.45301   0.30672   0.45320   1.000
    Mc18    Mc   0.68263   0.40850   0.32020   1.000
    Mc19    Mc   0.67210   0.29674   0.44319   1.000
    Mc20    Mc   0.09405   0.45297   0.19320   1.000
    Mc21    Mc   0.88497   0.44309   0.20293   1.000
    Mc22    Mc   0.21657   0.34099   0.07051   1.000
    Mc23    Mc   0.99731   0.32054   0.09084   1.000
    Mc24    Mc   0.91223   0.20286   0.55688   1.000
    Mc25    Mc   0.71295   0.19302   0.54696   1.000
    Mc26    Mc   0.71318   0.07036   0.65896   1.000
    Mc27    Mc   0.91184   0.09085   0.67954   1.000
    Mc28    Mc   0.12767   0.15921   0.42933   1.000
    Mc29    Mc   0.24024   0.04736   0.30650   1.000
    Mc30    Mc   0.03119   0.05681   0.29678   1.000
    Mc31    Mc   0.90850   0.17929   0.40898   1.000
    Mc32    Mc   0.91245   0.20289   0.05640   1.000
    Mc33    Mc   0.71265   0.19336   0.04701   1.000
    Mc34    Mc   0.91249   0.09078   0.17891   1.000
    Mc35    Mc   0.71312   0.07065   0.15889   1.000
    Mc36    Mc   0.21335   0.57043   0.15886   1.000
    Mc37    Mc   0.41219   0.70306   0.05675   1.000
    Mc38    Mc   0.41215   0.59085   0.17923   1.000
    Mc39    Mc   0.21259   0.69334   0.04715   1.000
    Mc40    Mc   0.21315   0.07063   0.15886   1.000
    Mc41    Mc   0.21267   0.19335   0.04700   1.000
    Mc42    Mc   0.41249   0.09078   0.17891   1.000
    Mc43    Mc   0.41245   0.20290   0.05644   1.000
    Mc44    Mc   0.03115   0.05629   0.79729   1.000
    Mc45    Mc   0.90860   0.17891   0.90935   1.000
    Mc46    Mc   0.12801   0.15893   0.92940   1.000
    Mc47    Mc   0.24031   0.04698   0.80679   1.000
    Mc48    Mc   0.59404   0.45297   0.19320   1.000
    Mc49    Mc   0.38498   0.44308   0.20294   1.000
    Mc50    Mc   0.49730   0.32054   0.09084   1.000
    Mc51    Mc   0.71657   0.34098   0.07053   1.000
    Mc52    Mc   0.91214   0.59086   0.17923   1.000
    Mc53    Mc   0.71259   0.69334   0.04714   1.000
    Mc54    Mc   0.91218   0.70306   0.05675   1.000
    Mc55    Mc   0.71334   0.57042   0.15885   1.000
    Mc56    Mc   0.62766   0.15921   0.42934   1.000
    Mc57    Mc   0.53118   0.05681   0.29678   1.000
    Mc58    Mc   0.74023   0.04735   0.30652   1.000
    Mc59    Mc   0.40851   0.17930   0.40897   1.000
    Mc60    Mc   0.62801   0.15892   0.92940   1.000
    Mc61    Mc   0.74030   0.04698   0.80679   1.000
    Mc62    Mc   0.53114   0.05629   0.79729   1.000
    Mc63    Mc   0.40861   0.17891   0.90934   1.000
    Mc64    Mc   0.09386   0.45325   0.69324   1.000
    Mc65    Mc   0.99713   0.32027   0.59153   1.000
    Mc66    Mc   0.21621   0.34101   0.57066   1.000
    Mc67    Mc   0.88474   0.44333   0.70312   1.000
    Mc68    Mc   0.38475   0.44333   0.70313   1.000
    Mc69    Mc   0.59385   0.45325   0.69324   1.000
    Mc70    Mc   0.49711   0.32027   0.59153   1.000
    Mc71    Mc   0.71619   0.34101   0.57066   1.000
    Mc72    Mc   0.21310   0.57071   0.65900   1.000
    Mc73    Mc   0.41105   0.59171   0.67989   1.000
    Mc74    Mc   0.21281   0.69328   0.54678   1.000
    Mc75    Mc   0.41192   0.70332   0.55680   1.000
    Mc76    Mc   0.18263   0.40850   0.32026   1.000
    Mc77    Mc   0.95300   0.30672   0.45323   1.000
    Mc78    Mc   0.94272   0.42935   0.34109   1.000
    Mc79    Mc   0.17211   0.29675   0.44319   1.000
    Mc80    Mc   0.59397   0.95290   0.19342   1.000
    Mc81    Mc   0.38469   0.94356   0.20286   1.000
    Mc82    Mc   0.49666   0.82104   0.09081   1.000
    Mc83    Mc   0.71631   0.84072   0.07090   1.000
    Mc84    Mc   0.90859   0.67948   0.90917   1.000
    Mc85    Mc   0.24010   0.54692   0.80706   1.000
    Mc86    Mc   0.12786   0.65887   0.92975   1.000
    Mc87    Mc   0.03096   0.55689   0.79711   1.000
    Mc88    Mc   0.91191   0.70333   0.55680   1.000
    Mc89    Mc   0.71281   0.69328   0.54678   1.000
    Mc90    Mc   0.71310   0.57071   0.65900   1.000
    Mc91    Mc   0.91105   0.59171   0.67989   1.000
    Mc92    Mc   0.90891   0.67980   0.40848   1.000
    Mc93    Mc   0.03119   0.55696   0.29657   1.000
    Mc94    Mc   0.12794   0.65891   0.42934   1.000
    Mc95    Mc   0.24029   0.54686   0.30668   1.000
    Mc96    Mc   0.21296   0.19302   0.54695   1.000
    Mc97    Mc   0.21319   0.07035   0.65895   1.000
    Mc98    Mc   0.41224   0.20286   0.55688   1.000
    Mc99    Mc   0.41184   0.09085   0.67954   1.000
    Mc100   Mc   0.40861   0.67947   0.90910   1.000
    Mc101   Mc   0.74009   0.54692   0.80705   1.000
    Mc102   Mc   0.62787   0.65888   0.92973   1.000
    Mc103   Mc   0.53095   0.55689   0.79711   1.000
    Mc104   Mc   0.49683   0.82067   0.59105   1.000
    Mc105   Mc   0.38482   0.94326   0.70310   1.000
    Mc106   Mc   0.59415   0.95268   0.69346   1.000
    Mc107   Mc   0.71626   0.84072   0.57070   1.000
    Mc108   Mc   0.67196   0.79714   0.44305   1.000
    Mc109   Mc   0.68221   0.90924   0.32055   1.000
    Mc110   Mc   0.44231   0.92991   0.34124   1.000
    Mc111   Mc   0.45285   0.80707   0.45304   1.000
    Mc112   Mc   0.74028   0.54686   0.30668   1.000
    Mc113   Mc   0.62794   0.65892   0.42930   1.000
    Mc114   Mc   0.40891   0.67979   0.40849   1.000
    Mc115   Mc   0.53119   0.55696   0.29657   1.000
    Mc116   Mc   0.45313   0.80669   0.95300   1.000
    Mc117   Mc   0.68232   0.90922   0.82100   1.000
    Mc118   Mc   0.67174   0.79729   0.94374   1.000
    Mc119   Mc   0.44296   0.92910   0.84085   1.000
    Mc120   Mc   0.95312   0.80668   0.95302   1.000
    Mc121   Mc   0.94295   0.92911   0.84080   1.000
    Mc122   Mc   0.18233   0.90922   0.82108   1.000
    Mc123   Mc   0.17175   0.79729   0.94370   1.000
    Mc124   Mc   0.94316   0.42928   0.84058   1.000
    Mc125   Mc   0.95313   0.30655   0.95251   1.000
    Mc126   Mc   0.17186   0.29691   0.94328   1.000
    Mc127   Mc   0.18256   0.40900   0.82070   1.000
