# CIF file generated by openbabel 2.4.90, see http://openbabel.sf.net
data_I
_chemical_name_common ''
_cell_length_a 14.678
_cell_length_b 21.376
_cell_length_c 21.376
_cell_angle_alpha 83.236
_cell_angle_beta 69.927
_cell_angle_gamma 69.929
_space_group_name_H-M_alt 'P 1'
_space_group_name_Hall 'P 1'
loop_
    _symmetry_equiv_pos_as_xyz
    x,y,z
loop_
    _atom_site_label
    _atom_site_type_symbol
    _atom_site_fract_x
    _atom_site_fract_y
    _atom_site_fract_z
    _atom_site_occupancy
    C0      C    0.11447   0.33333   0.41082   1.000
    C1      C    0.11435   0.33350   0.91082   1.000
    C2      C    0.11420   0.83382   0.41080   1.000
    C3      C    0.11420   0.83379   0.91127   1.000
    C4      C    0.61447   0.33332   0.41081   1.000
    C5      C    0.61437   0.33348   0.91080   1.000
    C6      C    0.61420   0.83381   0.41080   1.000
    C7      C    0.61419   0.83379   0.91127   1.000
    C8      C    0.02543   0.35768   0.11586   1.000
    C9      C    0.02518   0.35761   0.61632   1.000
    C10     C    0.02498   0.85799   0.11590   1.000
    C11     C    0.02507   0.85774   0.61606   1.000
    C12     C    0.52543   0.35766   0.11587   1.000
    C13     C    0.52516   0.35761   0.61633   1.000
    C14     C    0.52498   0.85799   0.11591   1.000
    C15     C    0.52506   0.85774   0.61606   1.000
    C16     C    0.35902   0.16632   0.08881   1.000
    C17     C    0.35882   0.16625   0.58920   1.000
    C18     C    0.35884   0.66640   0.08905   1.000
    C19     C    0.35843   0.66679   0.58922   1.000
    C20     C    0.85901   0.16632   0.08881   1.000
    C21     C    0.85881   0.16625   0.58920   1.000
    C22     C    0.85883   0.66640   0.08905   1.000
    C23     C    0.85843   0.66679   0.58920   1.000
    C24     C    0.99881   0.14226   0.38395   1.000
    C25     C    0.99890   0.14185   0.88432   1.000
    C26     C    0.99908   0.64249   0.38361   1.000
    C27     C    0.99883   0.64228   0.88425   1.000
    C28     C    0.49881   0.14225   0.38395   1.000
    C29     C    0.49889   0.14185   0.88432   1.000
    C30     C    0.49907   0.64249   0.38361   1.000
    C31     C    0.49883   0.64228   0.88425   1.000
    C32     C    0.47500   0.41078   0.16632   1.000
    C33     C    0.47476   0.41089   0.66662   1.000
    C34     C    0.47469   0.91112   0.16634   1.000
    C35     C    0.47480   0.91084   0.66653   1.000
    C36     C    0.97500   0.41077   0.16633   1.000
    C37     C    0.97476   0.41089   0.66662   1.000
    C38     C    0.97468   0.91112   0.16634   1.000
    C39     C    0.97479   0.91085   0.66650   1.000
    C40     C    0.35921   0.11581   0.14180   1.000
    C41     C    0.35884   0.11580   0.64233   1.000
    C42     C    0.35902   0.61587   0.14211   1.000
    C43     C    0.35830   0.61649   0.64250   1.000
    C44     C    0.85920   0.11582   0.14188   1.000
    C45     C    0.85883   0.11580   0.64233   1.000
    C46     C    0.85901   0.61587   0.14210   1.000
    C47     C    0.85830   0.61649   0.64250   1.000
    C48     C    0.05212   0.08920   0.33343   1.000
    C49     C    0.05215   0.08873   0.83385   1.000
    C50     C    0.05223   0.58929   0.33321   1.000
    C51     C    0.05201   0.58918   0.83378   1.000
    C52     C    0.55212   0.08920   0.33343   1.000
    C53     C    0.55214   0.08873   0.83385   1.000
    C54     C    0.55222   0.58928   0.33323   1.000
    C55     C    0.55201   0.58917   0.83378   1.000
    C56     C    0.11728   0.38367   0.35757   1.000
    C57     C    0.11727   0.38395   0.85769   1.000
    C58     C    0.11691   0.88431   0.35772   1.000
    C59     C    0.11705   0.88419   0.85810   1.000
    C60     C    0.61728   0.38367   0.35750   1.000
    C61     C    0.61726   0.38396   0.85770   1.000
    C62     C    0.61689   0.88432   0.35770   1.000
    C63     C    0.61704   0.88419   0.85810   1.000
    C64     C    0.26631   0.16089   0.08340   1.000
    C65     C    0.26633   0.16068   0.58359   1.000
    C66     C    0.26621   0.66089   0.08359   1.000
    C67     C    0.26605   0.66109   0.58354   1.000
    C68     C    0.76629   0.16089   0.08344   1.000
    C69     C    0.76631   0.16069   0.58359   1.000
    C70     C    0.76620   0.66089   0.08358   1.000
    C71     C    0.76604   0.66109   0.58354   1.000
    C72     C    0.12632   0.36591   0.10766   1.000
    C73     C    0.12604   0.36595   0.60793   1.000
    C74     C    0.12601   0.86592   0.10790   1.000
    C75     C    0.12605   0.86579   0.60787   1.000
    C76     C    0.62631   0.36592   0.10766   1.000
    C77     C    0.62603   0.36596   0.60793   1.000
    C78     C    0.62600   0.86592   0.10790   1.000
    C79     C    0.62605   0.86579   0.60788   1.000
    C80     C    0.01075   0.33896   0.41647   1.000
    C81     C    0.01087   0.33894   0.91608   1.000
    C82     C    0.01052   0.83942   0.41643   1.000
    C83     C    0.01076   0.83912   0.91656   1.000
    C84     C    0.51075   0.33897   0.41640   1.000
    C85     C    0.51085   0.33895   0.91610   1.000
    C86     C    0.51049   0.83944   0.41644   1.000
    C87     C    0.51075   0.83913   0.91656   1.000
    C88     C    0.09967   0.13417   0.39215   1.000
    C89     C    0.09984   0.13383   0.89237   1.000
    C90     C    0.09991   0.63406   0.39203   1.000
    C91     C    0.09973   0.63397   0.89254   1.000
    C92     C    0.59967   0.13417   0.39215   1.000
    C93     C    0.59983   0.13383   0.89237   1.000
    C94     C    0.59990   0.63404   0.39204   1.000
    C95     C    0.59973   0.63397   0.89253   1.000
    C96     C    0.07307   0.41634   0.16082   1.000
    C97     C    0.07287   0.41651   0.66099   1.000
    C98     C    0.07285   0.91641   0.16099   1.000
    C99     C    0.07298   0.91620   0.66105   1.000
    C100    C    0.57307   0.41632   0.16084   1.000
    C101    C    0.57286   0.41651   0.66099   1.000
    C102    C    0.57285   0.91641   0.16099   1.000
    C103    C    0.57297   0.91621   0.66104   1.000
    C104    C    0.00804   0.39208   0.36598   1.000
    C105    C    0.00826   0.39214   0.86500   1.000
    C106    C    0.00770   0.89264   0.36607   1.000
    C107    C    0.00810   0.89219   0.86605   1.000
    C108    C    0.50804   0.39207   0.36590   1.000
    C109    C    0.50826   0.39212   0.86560   1.000
    C110    C    0.50769   0.89264   0.36606   1.000
    C111    C    0.50809   0.89218   0.86605   1.000
    C112    C    0.15018   0.08381   0.33893   1.000
    C113    C    0.15025   0.08339   0.83924   1.000
    C114    C    0.15030   0.58360   0.33890   1.000
    C115    C    0.15010   0.58354   0.83939   1.000
    C116    C    0.65017   0.08380   0.33894   1.000
    C117    C    0.65024   0.08339   0.83925   1.000
    C118    C    0.65029   0.58361   0.33889   1.000
    C119    C    0.65010   0.58355   0.83938   1.000
    C120    C    0.26634   0.10771   0.13382   1.000
    C121    C    0.26623   0.10755   0.63400   1.000
    C122    C    0.26635   0.60764   0.13391   1.000
    C123    C    0.26592   0.60804   0.63409   1.000
    C124    C    0.76633   0.10772   0.13384   1.000
    C125    C    0.76622   0.10755   0.63404   1.000
    C126    C    0.76634   0.60764   0.13390   1.000
    C127    C    0.76592   0.60803   0.63409   1.000
loop_
    _geom_bond_atom_site_label_1
    _geom_bond_atom_site_label_2
    _geom_bond_distance
    _geom_bond_site_symmetry_2
    _ccdc_geom_bond_type
    C64    C16       1.44857      .   S
    C64    C120      1.47139      .   S
    C68    C20       1.44830      .   S
    C68    C124      1.47105      .   S
    C70    C22       1.44847      .   S
    C70    C126      1.47113      .   S
    C66    C18       1.44843      .   S
    C66    C122      1.47114      .   S
    C20    C44       1.47101      .   S
    C16    C40       1.46989      .   S
    C18    C42       1.47126      .   S
    C22    C46       1.47115      .   S
    C76    C12       1.49944      .   S
    C76    C100      1.47127      .   S
    C72    C8        1.49940      .   S
    C72    C96       1.47129      .   S
    C74    C10       1.49943      .   S
    C74    C98       1.47118      .   S
    C78    C14       1.49941      .   S
    C78    C102      1.47114      .   S
    C8     C36       1.47096  1_455   S
    C12    C32       1.47099      .   S
    C10    C38       1.47095  1_455   S
    C14    C34       1.47086      .   S
    C120   C40       1.49857      .   S
    C124   C44       1.49922      .   S
    C126   C46       1.49903      .   S
    C122   C42       1.49903      .   S
    C96    C36       1.44848  1_455   S
    C100   C32       1.44829      .   S
    C98    C38       1.44844  1_455   S
    C102   C34       1.44822      .   S
    C50    C114      1.44851      .   S
    C50    C26       1.47137  1_455   S
    C54    C118      1.44850      .   S
    C54    C30       1.47143      .   S
    C52    C116      1.44835      .   S
    C52    C28       1.47107      .   S
    C48    C112      1.44836      .   S
    C48    C24       1.47111  1_455   S
    C118   C94       1.47123      .   S
    C114   C90       1.47127      .   S
    C112   C88       1.47122      .   S
    C116   C92       1.47119      .   S
    C60    C108      1.49927      .   S
    C60    C4        1.47241      .   S
    C56    C104      1.49928      .   S
    C56    C0        1.47134      .   S
    C62    C110      1.49926      .   S
    C62    C6        1.47159      .   S
    C58    C106      1.49937      .   S
    C58    C2        1.47104      .   S
    C108   C84       1.47141      .   S
    C104   C80       1.47149      .   S
    C110   C86       1.47125      .   S
    C106   C82       1.47125      .   S
    C26    C90       1.49920  1_655   S
    C30    C94       1.49913      .   S
    C24    C88       1.49919  1_655   S
    C28    C92       1.49919      .   S
    C2     C82       1.44829      .   S
    C6     C86       1.44835      .   S
    C4     C84       1.44886      .   S
    C0     C80       1.44842      .   S
    C71    C23       1.44848      .   S
    C71    C127      1.47147      .   S
    C67    C19       1.44861      .   S
    C67    C123      1.47136      .   S
    C65    C17       1.44840      .   S
    C65    C121      1.47067      .   S
    C69    C21       1.44843      .   S
    C69    C125      1.47127      .   S
    C17    C41       1.47116      .   S
    C21    C45       1.47115      .   S
    C23    C47       1.47148      .   S
    C19    C43       1.47127      .   S
    C75    C11       1.49910      .   S
    C75    C99       1.47129      .   S
    C79    C15       1.49911      .   S
    C79    C103      1.47120      .   S
    C73    C9        1.49910      .   S
    C73    C97       1.47161      .   S
    C77    C13       1.49909      .   S
    C77    C101      1.47154      .   S
    C15    C35       1.47105      .   S
    C11    C39       1.47079  1_455   S
    C9     C37       1.47124  1_455   S
    C13    C33       1.47113      .   S
    C121   C41       1.49957      .   S
    C125   C45       1.49920      .   S
    C127   C47       1.49886      .   S
    C123   C43       1.49890      .   S
    C97    C37       1.44874  1_455   S
    C101   C33       1.44851      .   S
    C103   C35       1.44840      .   S
    C99    C39       1.44874  1_455   S
    C55    C119      1.44830      .   S
    C55    C31       1.47115      .   S
    C51    C115      1.44830      .   S
    C51    C27       1.47108  1_455   S
    C53    C117      1.44835      .   S
    C53    C29       1.47129      .   S
    C49    C113      1.44827      .   S
    C49    C25       1.47129  1_455   S
    C113   C89       1.47094      .   S
    C117   C93       1.47078      .   S
    C119   C95       1.47112      .   S
    C115   C91       1.47115      .   S
    C57    C105      1.50265      .   S
    C57    C1        1.47121      .   S
    C61    C109      1.49947      .   S
    C61    C5        1.47118      .   S
    C59    C107      1.49934      .   S
    C59    C3        1.47110      .   S
    C63    C111      1.49935      .   S
    C63    C7        1.47112      .   S
    C105   C81       1.48094      .   S
    C109   C85       1.47242      .   S
    C111   C87       1.47095      .   S
    C107   C83       1.47100      .   S
    C31    C95       1.49934      .   S
    C27    C91       1.49941  1_655   S
    C25    C89       1.49924  1_655   S
    C29    C93       1.49922      .   S
    C5     C85       1.44846      .   S
    C1     C81       1.44847      .   S
    C7     C87       1.44827      .   S
    C3     C83       1.44826      .   S
