# CIF file generated by openbabel 2.4.90, see http://openbabel.sf.net
data_I
_chemical_name_common ''
_cell_length_a 14.678
_cell_length_b 21.376
_cell_length_c 21.376
_cell_angle_alpha 83.236
_cell_angle_beta 69.927
_cell_angle_gamma 69.929
_space_group_name_H-M_alt 'P 1'
_space_group_name_Hall 'P 1'
loop_
    _symmetry_equiv_pos_as_xyz
    x,y,z
loop_
    _atom_site_label
    _atom_site_type_symbol
    _atom_site_fract_x
    _atom_site_fract_y
    _atom_site_fract_z
    _atom_site_occupancy
    O0      O    0.88481   0.94326   0.70310   1.000
    O1      O    0.41249   0.09078   0.17891   1.000
    O2      O    0.41184   0.09085   0.67954   1.000
    O3      O    0.41215   0.59085   0.17923   1.000
    O4      O    0.09405   0.45297   0.19320   1.000
    O5      O    0.09386   0.45325   0.69324   1.000
    O6      O    0.09398   0.95290   0.19342   1.000
    O7      O    0.09416   0.95268   0.69346   1.000
    O8      O    0.59404   0.45297   0.19320   1.000
    O9      O    0.17211   0.29675   0.44319   1.000
    O10     O    0.17186   0.29691   0.94328   1.000
    O11     O    0.17197   0.79713   0.44305   1.000
    O12     O    0.17175   0.79729   0.94370   1.000
    O13     O    0.67210   0.29674   0.44319   1.000
    O14     O    0.67186   0.29691   0.94328   1.000
    O15     O    0.67196   0.79714   0.44305   1.000
    O16     O    0.67174   0.79729   0.94374   1.000
    O17     O    0.99731   0.32054   0.09084   1.000
    O18     O    0.99713   0.32027   0.59153   1.000
    O19     O    0.99667   0.82104   0.09081   1.000
    O20     O    0.99684   0.82068   0.59100   1.000
    O21     O    0.49730   0.32054   0.09084   1.000
    O22     O    0.49711   0.32027   0.59153   1.000
    O23     O    0.49666   0.82104   0.09081   1.000
    O24     O    0.49683   0.82067   0.59105   1.000
    O25     O    0.41245   0.20290   0.05644   1.000
    O26     O    0.41224   0.20286   0.55688   1.000
    O27     O    0.41219   0.70306   0.05675   1.000
    O28     O    0.41192   0.70332   0.55680   1.000
    O29     O    0.91245   0.20289   0.05640   1.000
    O30     O    0.91223   0.20286   0.55688   1.000
    O31     O    0.91218   0.70306   0.05675   1.000
    O32     O    0.91191   0.70333   0.55680   1.000
    O33     O    0.40851   0.17930   0.40897   1.000
    O34     O    0.40861   0.17891   0.90934   1.000
    O35     O    0.40891   0.67979   0.40849   1.000
    O36     O    0.40861   0.67947   0.90910   1.000
    O37     O    0.90850   0.17929   0.40898   1.000
    O38     O    0.90860   0.17891   0.90935   1.000
    O39     O    0.90891   0.67980   0.40848   1.000
    O40     O    0.90859   0.67948   0.90917   1.000
    O41     O    0.38498   0.44308   0.20294   1.000
    O42     O    0.38475   0.44333   0.70313   1.000
    O43     O    0.38469   0.94356   0.20286   1.000
    O44     O    0.38482   0.94326   0.70310   1.000
    O45     O    0.88497   0.44309   0.20293   1.000
    O46     O    0.88474   0.44333   0.70312   1.000
    O47     O    0.88468   0.94356   0.20286   1.000
    O48     O    0.41105   0.59171   0.67989   1.000
    O49     O    0.91249   0.09078   0.17891   1.000
    O50     O    0.91184   0.09085   0.67954   1.000
    O51     O    0.91214   0.59086   0.17923   1.000
    O52     O    0.91105   0.59171   0.67989   1.000
    O53     O    0.03119   0.05681   0.29678   1.000
    O54     O    0.03115   0.05629   0.79729   1.000
    O55     O    0.03119   0.55696   0.29657   1.000
    O56     O    0.03096   0.55689   0.79711   1.000
    O57     O    0.53118   0.05681   0.29678   1.000
    O58     O    0.53114   0.05629   0.79729   1.000
    O59     O    0.53119   0.55696   0.29657   1.000
    O60     O    0.53095   0.55689   0.79711   1.000
    O61     O    0.18263   0.40850   0.32026   1.000
    O62     O    0.18256   0.40900   0.82070   1.000
    O63     O    0.18222   0.90924   0.32055   1.000
    O64     O    0.18233   0.90922   0.82108   1.000
    O65     O    0.68263   0.40850   0.32020   1.000
    O66     O    0.68256   0.40898   0.82069   1.000
    O67     O    0.68221   0.90924   0.32055   1.000
    O68     O    0.68232   0.90922   0.82100   1.000
    O69     O    0.21267   0.19335   0.04700   1.000
    O70     O    0.21296   0.19302   0.54695   1.000
    O71     O    0.21259   0.69334   0.04715   1.000
    O72     O    0.21281   0.69328   0.54678   1.000
    O73     O    0.71265   0.19336   0.04701   1.000
    O74     O    0.71295   0.19302   0.54696   1.000
    O75     O    0.71259   0.69334   0.04714   1.000
    O76     O    0.71281   0.69328   0.54678   1.000
    O77     O    0.21657   0.34099   0.07051   1.000
    O78     O    0.21621   0.34101   0.57066   1.000
    O79     O    0.21632   0.84072   0.07097   1.000
    O80     O    0.21627   0.84071   0.57074   1.000
    O81     O    0.71657   0.34098   0.07053   1.000
    O82     O    0.71619   0.34101   0.57066   1.000
    O83     O    0.71631   0.84072   0.07090   1.000
    O84     O    0.71626   0.84072   0.57070   1.000
    O85     O    0.45301   0.30672   0.45320   1.000
    O86     O    0.45315   0.30655   0.95251   1.000
    O87     O    0.45285   0.80707   0.45304   1.000
    O88     O    0.45313   0.80669   0.95300   1.000
    O89     O    0.95300   0.30672   0.45323   1.000
    O90     O    0.95313   0.30655   0.95251   1.000
    O91     O    0.95284   0.80706   0.45300   1.000
    O92     O    0.95312   0.80668   0.95302   1.000
    O93     O    0.12767   0.15921   0.42933   1.000
    O94     O    0.12801   0.15893   0.92940   1.000
    O95     O    0.12794   0.65891   0.42934   1.000
    O96     O    0.12786   0.65887   0.92975   1.000
    O97     O    0.62766   0.15921   0.42934   1.000
    O98     O    0.62801   0.15892   0.92940   1.000
    O99     O    0.62794   0.65892   0.42930   1.000
    O100    O    0.62787   0.65888   0.92973   1.000
    O101    O    0.59385   0.45325   0.69324   1.000
    O102    O    0.59397   0.95290   0.19342   1.000
    O103    O    0.59415   0.95268   0.69346   1.000
    O104    O    0.44273   0.42936   0.34110   1.000
    O105    O    0.44316   0.42929   0.84059   1.000
    O106    O    0.44231   0.92991   0.34124   1.000
    O107    O    0.44296   0.92910   0.84085   1.000
    O108    O    0.94272   0.42935   0.34109   1.000
    O109    O    0.94316   0.42928   0.84058   1.000
    O110    O    0.94231   0.92990   0.34123   1.000
    O111    O    0.94295   0.92911   0.84080   1.000
    O112    O    0.24024   0.04736   0.30650   1.000
    O113    O    0.24031   0.04698   0.80679   1.000
    O114    O    0.24029   0.54686   0.30668   1.000
    O115    O    0.24010   0.54692   0.80706   1.000
    O116    O    0.74023   0.04735   0.30652   1.000
    O117    O    0.74030   0.04698   0.80679   1.000
    O118    O    0.74028   0.54686   0.30668   1.000
    O119    O    0.74009   0.54692   0.80705   1.000
    O120    O    0.21315   0.07063   0.15886   1.000
    O121    O    0.21319   0.07035   0.65895   1.000
    O122    O    0.21335   0.57043   0.15886   1.000
    O123    O    0.21310   0.57071   0.65900   1.000
    O124    O    0.71312   0.07065   0.15889   1.000
    O125    O    0.71318   0.07036   0.65896   1.000
    O126    O    0.71334   0.57042   0.15885   1.000
    O127    O    0.71310   0.57071   0.65900   1.000
