# CIF file generated by openbabel 2.4.90, see http://openbabel.sf.net
data_I
_chemical_name_common ''
_cell_length_a 14.678
_cell_length_b 21.376
_cell_length_c 21.376
_cell_angle_alpha 83.236
_cell_angle_beta 69.927
_cell_angle_gamma 69.929
_space_group_name_H-M_alt 'P 1'
_space_group_name_Hall 'P 1'
loop_
    _symmetry_equiv_pos_as_xyz
    x,y,z
loop_
    _atom_site_label
    _atom_site_type_symbol
    _atom_site_fract_x
    _atom_site_fract_y
    _atom_site_fract_z
    _atom_site_occupancy
    C0      C    0.11447   0.33333   0.41082   1.000
    C1      C    0.11435   0.33350   0.91082   1.000
    C2      C    0.11420   0.83382   0.41080   1.000
    C3      C    0.11420   0.83379   0.91127   1.000
    C4      C    0.61447   0.33332   0.41081   1.000
    C5      C    0.61437   0.33348   0.91080   1.000
    C6      C    0.61420   0.83381   0.41080   1.000
    C7      C    0.61419   0.83379   0.91127   1.000
    C8      C    0.02543   0.35768   0.11586   1.000
    C9      C    0.02518   0.35761   0.61632   1.000
    C10     C    0.02498   0.85799   0.11590   1.000
    C11     C    0.02507   0.85774   0.61606   1.000
    C12     C    0.52543   0.35766   0.11587   1.000
    C13     C    0.52516   0.35761   0.61633   1.000
    C14     C    0.52498   0.85799   0.11591   1.000
    C15     C    0.52506   0.85774   0.61606   1.000
    C16     C    0.35902   0.16632   0.08881   1.000
    C17     C    0.35882   0.16625   0.58920   1.000
    C18     C    0.35884   0.66640   0.08905   1.000
    C19     C    0.35843   0.66679   0.58922   1.000
    C20     C    0.85901   0.16632   0.08881   1.000
    C21     C    0.85881   0.16625   0.58920   1.000
    C22     C    0.85883   0.66640   0.08905   1.000
    C23     C    0.85843   0.66679   0.58920   1.000
    C24     C    0.99881   0.14226   0.38395   1.000
    C25     C    0.99890   0.14185   0.88432   1.000
    C26     C    0.99908   0.64249   0.38361   1.000
    C27     C    0.99883   0.64228   0.88425   1.000
    C28     C    0.49881   0.14225   0.38395   1.000
    C29     C    0.49889   0.14185   0.88432   1.000
    C30     C    0.49907   0.64249   0.38361   1.000
    C31     C    0.49883   0.64228   0.88425   1.000
    C32     C    0.47500   0.41078   0.16632   1.000
    C33     C    0.47476   0.41089   0.66662   1.000
    C34     C    0.47469   0.91112   0.16634   1.000
    C35     C    0.47480   0.91084   0.66653   1.000
    C36     C    0.97500   0.41077   0.16633   1.000
    C37     C    0.97476   0.41089   0.66662   1.000
    C38     C    0.97468   0.91112   0.16634   1.000
    C39     C    0.97479   0.91085   0.66650   1.000
    C40     C    0.35921   0.11581   0.14180   1.000
    C41     C    0.35884   0.11580   0.64233   1.000
    C42     C    0.35902   0.61587   0.14211   1.000
    C43     C    0.35830   0.61649   0.64250   1.000
    C44     C    0.85920   0.11582   0.14188   1.000
    C45     C    0.85883   0.11580   0.64233   1.000
    C46     C    0.85901   0.61587   0.14210   1.000
    C47     C    0.85830   0.61649   0.64250   1.000
    C48     C    0.05212   0.08920   0.33343   1.000
    C49     C    0.05215   0.08873   0.83385   1.000
    C50     C    0.05223   0.58929   0.33321   1.000
    C51     C    0.05201   0.58918   0.83378   1.000
    C52     C    0.55212   0.08920   0.33343   1.000
    C53     C    0.55214   0.08873   0.83385   1.000
    C54     C    0.55222   0.58928   0.33323   1.000
    C55     C    0.55201   0.58917   0.83378   1.000
    C56     C    0.11728   0.38367   0.35757   1.000
    C57     C    0.11727   0.38395   0.85769   1.000
    C58     C    0.11691   0.88431   0.35772   1.000
    C59     C    0.11705   0.88419   0.85810   1.000
    C60     C    0.61728   0.38367   0.35750   1.000
    C61     C    0.61726   0.38396   0.85770   1.000
    C62     C    0.61689   0.88432   0.35770   1.000
    C63     C    0.61704   0.88419   0.85810   1.000
    C64     C    0.26631   0.16089   0.08340   1.000
    C65     C    0.26633   0.16068   0.58359   1.000
    C66     C    0.26621   0.66089   0.08359   1.000
    C67     C    0.26605   0.66109   0.58354   1.000
    O68     O    0.88481   0.94326   0.70310   1.000
    O69     O    0.41249   0.09078   0.17891   1.000
    O70     O    0.41184   0.09085   0.67954   1.000
    O71     O    0.41215   0.59085   0.17923   1.000
    C72     C    0.76629   0.16089   0.08344   1.000
    C73     C    0.76631   0.16069   0.58359   1.000
    C74     C    0.76620   0.66089   0.08358   1.000
    C75     C    0.76604   0.66109   0.58354   1.000
    C76     C    0.12632   0.36591   0.10766   1.000
    C77     C    0.12604   0.36595   0.60793   1.000
    C78     C    0.12601   0.86592   0.10790   1.000
    C79     C    0.12605   0.86579   0.60787   1.000
    C80     C    0.62631   0.36592   0.10766   1.000
    C81     C    0.62603   0.36596   0.60793   1.000
    C82     C    0.62600   0.86592   0.10790   1.000
    C83     C    0.62605   0.86579   0.60788   1.000
    C84     C    0.01075   0.33896   0.41647   1.000
    C85     C    0.01087   0.33894   0.91608   1.000
    C86     C    0.01052   0.83942   0.41643   1.000
    C87     C    0.01076   0.83912   0.91656   1.000
    C88     C    0.51075   0.33897   0.41640   1.000
    C89     C    0.51085   0.33895   0.91610   1.000
    C90     C    0.51049   0.83944   0.41644   1.000
    C91     C    0.51075   0.83913   0.91656   1.000
    C92     C    0.09967   0.13417   0.39215   1.000
    C93     C    0.09984   0.13383   0.89237   1.000
    C94     C    0.09991   0.63406   0.39203   1.000
    C95     C    0.09973   0.63397   0.89254   1.000
    C96     C    0.59967   0.13417   0.39215   1.000
    C97     C    0.59983   0.13383   0.89237   1.000
    C98     C    0.59990   0.63404   0.39204   1.000
    C99     C    0.59973   0.63397   0.89253   1.000
    O100    O    0.09405   0.45297   0.19320   1.000
    O101    O    0.09386   0.45325   0.69324   1.000
    O102    O    0.09398   0.95290   0.19342   1.000
    O103    O    0.09416   0.95268   0.69346   1.000
    O104    O    0.59404   0.45297   0.19320   1.000
    C105    C    0.07307   0.41634   0.16082   1.000
    C106    C    0.07287   0.41651   0.66099   1.000
    C107    C    0.07285   0.91641   0.16099   1.000
    C108    C    0.07298   0.91620   0.66105   1.000
    C109    C    0.57307   0.41632   0.16084   1.000
    C110    C    0.57286   0.41651   0.66099   1.000
    C111    C    0.57285   0.91641   0.16099   1.000
    C112    C    0.57297   0.91621   0.66104   1.000
    C113    C    0.00804   0.39208   0.36598   1.000
    C114    C    0.00826   0.39214   0.86500   1.000
    C115    C    0.00770   0.89264   0.36607   1.000
    C116    C    0.00810   0.89219   0.86605   1.000
    C117    C    0.50804   0.39207   0.36590   1.000
    C118    C    0.50826   0.39212   0.86560   1.000
    C119    C    0.50769   0.89264   0.36606   1.000
    C120    C    0.50809   0.89218   0.86605   1.000
    C121    C    0.15018   0.08381   0.33893   1.000
    C122    C    0.15025   0.08339   0.83924   1.000
    C123    C    0.15030   0.58360   0.33890   1.000
    C124    C    0.15010   0.58354   0.83939   1.000
    C125    C    0.65017   0.08380   0.33894   1.000
    C126    C    0.65024   0.08339   0.83925   1.000
    C127    C    0.65029   0.58361   0.33889   1.000
    C128    C    0.65010   0.58355   0.83938   1.000
    C129    C    0.26634   0.10771   0.13382   1.000
    C130    C    0.26623   0.10755   0.63400   1.000
    C131    C    0.26635   0.60764   0.13391   1.000
    C132    C    0.26592   0.60804   0.63409   1.000
    C133    C    0.76633   0.10772   0.13384   1.000
    C134    C    0.76622   0.10755   0.63404   1.000
    C135    C    0.76634   0.60764   0.13390   1.000
    C136    C    0.76592   0.60803   0.63409   1.000
    O137    O    0.17211   0.29675   0.44319   1.000
    O138    O    0.17186   0.29691   0.94328   1.000
    O139    O    0.17197   0.79713   0.44305   1.000
    O140    O    0.17175   0.79729   0.94370   1.000
    O141    O    0.67210   0.29674   0.44319   1.000
    O142    O    0.67186   0.29691   0.94328   1.000
    O143    O    0.67196   0.79714   0.44305   1.000
    O144    O    0.67174   0.79729   0.94374   1.000
    O145    O    0.99731   0.32054   0.09084   1.000
    O146    O    0.99713   0.32027   0.59153   1.000
    O147    O    0.99667   0.82104   0.09081   1.000
    O148    O    0.99684   0.82068   0.59100   1.000
    O149    O    0.49730   0.32054   0.09084   1.000
    O150    O    0.49711   0.32027   0.59153   1.000
    O151    O    0.49666   0.82104   0.09081   1.000
    O152    O    0.49683   0.82067   0.59105   1.000
    O153    O    0.41245   0.20290   0.05644   1.000
    O154    O    0.41224   0.20286   0.55688   1.000
    O155    O    0.41219   0.70306   0.05675   1.000
    O156    O    0.41192   0.70332   0.55680   1.000
    O157    O    0.91245   0.20289   0.05640   1.000
    O158    O    0.91223   0.20286   0.55688   1.000
    O159    O    0.91218   0.70306   0.05675   1.000
    O160    O    0.91191   0.70333   0.55680   1.000
    O161    O    0.40851   0.17930   0.40897   1.000
    O162    O    0.40861   0.17891   0.90934   1.000
    O163    O    0.40891   0.67979   0.40849   1.000
    O164    O    0.40861   0.67947   0.90910   1.000
    O165    O    0.90850   0.17929   0.40898   1.000
    O166    O    0.90860   0.17891   0.90935   1.000
    O167    O    0.90891   0.67980   0.40848   1.000
    O168    O    0.90859   0.67948   0.90917   1.000
    O169    O    0.38498   0.44308   0.20294   1.000
    O170    O    0.38475   0.44333   0.70313   1.000
    O171    O    0.38469   0.94356   0.20286   1.000
    O172    O    0.38482   0.94326   0.70310   1.000
    O173    O    0.88497   0.44309   0.20293   1.000
    O174    O    0.88474   0.44333   0.70312   1.000
    O175    O    0.88468   0.94356   0.20286   1.000
    O176    O    0.41105   0.59171   0.67989   1.000
    O177    O    0.91249   0.09078   0.17891   1.000
    O178    O    0.91184   0.09085   0.67954   1.000
    O179    O    0.91214   0.59086   0.17923   1.000
    O180    O    0.91105   0.59171   0.67989   1.000
    O181    O    0.03119   0.05681   0.29678   1.000
    O182    O    0.03115   0.05629   0.79729   1.000
    O183    O    0.03119   0.55696   0.29657   1.000
    O184    O    0.03096   0.55689   0.79711   1.000
    O185    O    0.53118   0.05681   0.29678   1.000
    O186    O    0.53114   0.05629   0.79729   1.000
    O187    O    0.53119   0.55696   0.29657   1.000
    O188    O    0.53095   0.55689   0.79711   1.000
    O189    O    0.18263   0.40850   0.32026   1.000
    O190    O    0.18256   0.40900   0.82070   1.000
    O191    O    0.18222   0.90924   0.32055   1.000
    O192    O    0.18233   0.90922   0.82108   1.000
    O193    O    0.68263   0.40850   0.32020   1.000
    O194    O    0.68256   0.40898   0.82069   1.000
    O195    O    0.68221   0.90924   0.32055   1.000
    O196    O    0.68232   0.90922   0.82100   1.000
    O197    O    0.21267   0.19335   0.04700   1.000
    O198    O    0.21296   0.19302   0.54695   1.000
    O199    O    0.21259   0.69334   0.04715   1.000
    O200    O    0.21281   0.69328   0.54678   1.000
    O201    O    0.71265   0.19336   0.04701   1.000
    O202    O    0.71295   0.19302   0.54696   1.000
    O203    O    0.71259   0.69334   0.04714   1.000
    O204    O    0.71281   0.69328   0.54678   1.000
    O205    O    0.21657   0.34099   0.07051   1.000
    O206    O    0.21621   0.34101   0.57066   1.000
    O207    O    0.21632   0.84072   0.07097   1.000
    O208    O    0.21627   0.84071   0.57074   1.000
    O209    O    0.71657   0.34098   0.07053   1.000
    O210    O    0.71619   0.34101   0.57066   1.000
    O211    O    0.71631   0.84072   0.07090   1.000
    O212    O    0.71626   0.84072   0.57070   1.000
    O213    O    0.45301   0.30672   0.45320   1.000
    O214    O    0.45315   0.30655   0.95251   1.000
    O215    O    0.45285   0.80707   0.45304   1.000
    O216    O    0.45313   0.80669   0.95300   1.000
    O217    O    0.95300   0.30672   0.45323   1.000
    O218    O    0.95313   0.30655   0.95251   1.000
    O219    O    0.95284   0.80706   0.45300   1.000
    O220    O    0.95312   0.80668   0.95302   1.000
    O221    O    0.12767   0.15921   0.42933   1.000
    O222    O    0.12801   0.15893   0.92940   1.000
    O223    O    0.12794   0.65891   0.42934   1.000
    O224    O    0.12786   0.65887   0.92975   1.000
    O225    O    0.62766   0.15921   0.42934   1.000
    O226    O    0.62801   0.15892   0.92940   1.000
    O227    O    0.62794   0.65892   0.42930   1.000
    O228    O    0.62787   0.65888   0.92973   1.000
    O229    O    0.59385   0.45325   0.69324   1.000
    O230    O    0.59397   0.95290   0.19342   1.000
    O231    O    0.59415   0.95268   0.69346   1.000
    O232    O    0.44273   0.42936   0.34110   1.000
    O233    O    0.44316   0.42929   0.84059   1.000
    O234    O    0.44231   0.92991   0.34124   1.000
    O235    O    0.44296   0.92910   0.84085   1.000
    O236    O    0.94272   0.42935   0.34109   1.000
    O237    O    0.94316   0.42928   0.84058   1.000
    O238    O    0.94231   0.92990   0.34123   1.000
    O239    O    0.94295   0.92911   0.84080   1.000
    O240    O    0.24024   0.04736   0.30650   1.000
    O241    O    0.24031   0.04698   0.80679   1.000
    O242    O    0.24029   0.54686   0.30668   1.000
    O243    O    0.24010   0.54692   0.80706   1.000
    O244    O    0.74023   0.04735   0.30652   1.000
    O245    O    0.74030   0.04698   0.80679   1.000
    O246    O    0.74028   0.54686   0.30668   1.000
    O247    O    0.74009   0.54692   0.80705   1.000
    O248    O    0.21315   0.07063   0.15886   1.000
    O249    O    0.21319   0.07035   0.65895   1.000
    O250    O    0.21335   0.57043   0.15886   1.000
    O251    O    0.21310   0.57071   0.65900   1.000
    O252    O    0.71312   0.07065   0.15889   1.000
    O253    O    0.71318   0.07036   0.65896   1.000
    O254    O    0.71334   0.57042   0.15885   1.000
    O255    O    0.71310   0.57071   0.65900   1.000
loop_
    _geom_bond_atom_site_label_1
    _geom_bond_atom_site_label_2
    _geom_bond_distance
    _geom_bond_site_symmetry_2
    _ccdc_geom_bond_type
    O197   C64       1.27480      .   S
    O201   C72       1.27528      .   S
    O203   C74       1.27519      .   S
    O199   C66       1.27518      .   S
    O157   C20       1.27547      .   S
    O153   C16       1.27527      .   S
    O159   C22       1.27532      .   S
    O155   C18       1.27531      .   S
    O205   C76       1.24999      .   S
    O209   C80       1.24996      .   S
    O211   C82       1.25038      .   S
    O207   C78       1.24990      .   S
    C64    C16       1.44857      .   S
    C64    C129      1.47139      .   S
    C72    C20       1.44830      .   S
    C72    C133      1.47105      .   S
    C74    C22       1.44847      .   S
    C74    C135      1.47113      .   S
    C66    C18       1.44843      .   S
    C66    C131      1.47114      .   S
    C20    C44       1.47101      .   S
    C16    C40       1.46989      .   S
    C18    C42       1.47126      .   S
    C22    C46       1.47115      .   S
    O147   C10       1.25000  1_655   S
    O151   C14       1.25008      .   S
    O145   C8        1.25012  1_655   S
    O149   C12       1.25006      .   S
    C80    C12       1.49944      .   S
    C80    C109      1.47127      .   S
    C76    C8        1.49940      .   S
    C76    C105      1.47129      .   S
    C78    C10       1.49943      .   S
    C78    C107      1.47118      .   S
    C82    C14       1.49941      .   S
    C82    C111      1.47114      .   S
    C8     C36       1.47096  1_455   S
    C12    C32       1.47099      .   S
    C10    C38       1.47095  1_455   S
    C14    C34       1.47086      .   S
    C129   C40       1.49857      .   S
    C129   O248      1.24992      .   S
    C133   C44       1.49922      .   S
    C133   O252      1.24993      .   S
    C135   C46       1.49903      .   S
    C135   O254      1.24998      .   S
    C131   C42       1.49903      .   S
    C131   O250      1.24997      .   S
    C40    O69       1.25127      .   S
    C44    O177      1.25001      .   S
    C46    O179      1.25006      .   S
    C42    O71       1.24992      .   S
    C105   C36       1.44848  1_455   S
    C105   O100      1.27527      .   S
    C109   C32       1.44829      .   S
    C109   O104      1.27518      .   S
    C107   C38       1.44844  1_455   S
    C107   O102      1.27515      .   S
    C111   C34       1.44822      .   S
    C111   O230      1.27520      .   S
    C32    O169      1.27536      .   S
    C36    O173      1.27530      .   S
    C38    O175      1.27530      .   S
    C34    O171      1.27528      .   S
    O183   C50       1.27532      .   S
    O187   C54       1.27537      .   S
    O181   C48       1.27534      .   S
    O185   C52       1.27542      .   S
    O240   C121      1.27527      .   S
    O244   C125      1.27521      .   S
    O246   C127      1.27542      .   S
    O242   C123      1.27541      .   S
    O193   C60       1.24991      .   S
    O189   C56       1.25005      .   S
    O195   C62       1.24975      .   S
    O191   C58       1.24998      .   S
    C50    C123      1.44851      .   S
    C50    C26       1.47137  1_455   S
    C54    C127      1.44850      .   S
    C54    C30       1.47143      .   S
    C52    C125      1.44835      .   S
    C52    C28       1.47107      .   S
    C48    C121      1.44836      .   S
    C48    C24       1.47111  1_455   S
    C127   C98       1.47123      .   S
    C123   C94       1.47127      .   S
    C121   C92       1.47122      .   S
    C125   C96       1.47119      .   S
    O236   C113      1.25024  1_655   S
    O232   C117      1.24904      .   S
    O238   C115      1.25018  1_655   S
    O234   C119      1.24993      .   S
    C60    C117      1.49927      .   S
    C60    C4        1.47241      .   S
    C56    C113      1.49928      .   S
    C56    C0        1.47134      .   S
    C62    C119      1.49926      .   S
    C62    C6        1.47159      .   S
    C58    C115      1.49937      .   S
    C58    C2        1.47104      .   S
    C117   C88       1.47141      .   S
    C113   C84       1.47149      .   S
    C119   C90       1.47125      .   S
    C115   C86       1.47125      .   S
    C26    C94       1.49920  1_655   S
    C26    O167      1.25014      .   S
    C30    C98       1.49913      .   S
    C30    O163      1.24997      .   S
    C24    C92       1.49919  1_655   S
    C24    O165      1.25012      .   S
    C28    C96       1.49919      .   S
    C28    O161      1.24998      .   S
    C94    O223      1.25013      .   S
    C98    O227      1.24954      .   S
    C96    O225      1.25006      .   S
    C92    O221      1.24999      .   S
    C2     C86       1.44829      .   S
    C2     O139      1.27540      .   S
    C6     C90       1.44835      .   S
    C6     O143      1.27527      .   S
    C4     C88       1.44886      .   S
    C4     O141      1.27529      .   S
    C0     C84       1.44842      .   S
    C0     O137      1.27528      .   S
    C88    O213      1.27580      .   S
    C86    O219      1.27527  1_455   S
    C90    O215      1.27542      .   S
    C84    O217      1.27559  1_455   S
    O200   C67       1.27534      .   S
    O204   C75       1.27530      .   S
    O198   C65       1.27544      .   S
    O202   C73       1.27526      .   S
    O156   C19       1.27533      .   S
    O160   C23       1.27523      .   S
    O154   C17       1.27533      .   S
    O158   C21       1.27533      .   S
    O206   C77       1.24998      .   S
    O210   C81       1.24998      .   S
    O212   C83       1.25024      .   S
    O208   C79       1.24997      .   S
    C75    C23       1.44848      .   S
    C75    C136      1.47147      .   S
    C67    C19       1.44861      .   S
    C67    C132      1.47136      .   S
    C65    C17       1.44840      .   S
    C65    C130      1.47067      .   S
    C73    C21       1.44843      .   S
    C73    C134      1.47127      .   S
    C17    C41       1.47116      .   S
    C21    C45       1.47115      .   S
    C23    C47       1.47148      .   S
    C19    C43       1.47127      .   S
    O148   C11       1.25053  1_655   S
    O152   C15       1.25005      .   S
    O146   C9        1.25006  1_655   S
    O150   C13       1.25018      .   S
    C79    C11       1.49910      .   S
    C79    C108      1.47129      .   S
    C83    C15       1.49911      .   S
    C83    C112      1.47120      .   S
    C77    C9        1.49910      .   S
    C77    C106      1.47161      .   S
    C81    C13       1.49909      .   S
    C81    C110      1.47154      .   S
    C15    C35       1.47105      .   S
    C11    C39       1.47079  1_455   S
    C9     C37       1.47124  1_455   S
    C13    C33       1.47113      .   S
    C130   C41       1.49957      .   S
    C130   O249      1.25011      .   S
    C134   C45       1.49920      .   S
    C134   O253      1.25000      .   S
    C136   C47       1.49886      .   S
    C136   O255      1.25000      .   S
    C132   C43       1.49890      .   S
    C132   O251      1.25002      .   S
    C41    O70       1.24996      .   S
    C45    O178      1.25001      .   S
    C47    O180      1.24999      .   S
    C43    O176      1.24992      .   S
    C106   C37       1.44874  1_455   S
    C106   O101      1.27536      .   S
    C110   C33       1.44851      .   S
    C110   O229      1.27541      .   S
    C112   C35       1.44840      .   S
    C112   O231      1.27520      .   S
    C108   C39       1.44874  1_455   S
    C108   O103      1.27514      .   S
    C39    O68       1.27543      .   S
    C35    O172      1.27529      .   S
    C37    O174      1.27528      .   S
    C33    O170      1.27531      .   S
    O188   C55       1.27528      .   S
    O184   C51       1.27528      .   S
    O186   C53       1.27538      .   S
    O182   C49       1.27538      .   S
    O245   C126      1.27522      .   S
    O241   C122      1.27516      .   S
    O247   C128      1.27535      .   S
    O243   C124      1.27532      .   S
    O194   C61       1.24996      .   S
    O190   C57       1.24997      .   S
    O196   C63       1.25048      .   S
    O192   C59       1.24994      .   S
    C55    C128      1.44830      .   S
    C55    C31       1.47115      .   S
    C51    C124      1.44830      .   S
    C51    C27       1.47108  1_455   S
    C53    C126      1.44835      .   S
    C53    C29       1.47129      .   S
    C49    C122      1.44827      .   S
    C49    C25       1.47129  1_455   S
    C122   C93       1.47094      .   S
    C126   C97       1.47078      .   S
    C128   C99       1.47112      .   S
    C124   C95       1.47115      .   S
    O237   C114      1.24098  1_655   S
    O233   C118      1.24885      .   S
    O239   C116      1.25078  1_655   S
    O235   C120      1.24997      .   S
    C57    C114      1.50265      .   S
    C57    C1        1.47121      .   S
    C61    C118      1.49947      .   S
    C61    C5        1.47118      .   S
    C59    C116      1.49934      .   S
    C59    C3        1.47110      .   S
    C63    C120      1.49935      .   S
    C63    C7        1.47112      .   S
    C114   C85       1.48094      .   S
    C118   C89       1.47242      .   S
    C120   C91       1.47095      .   S
    C116   C87       1.47100      .   S
    C31    C99       1.49934      .   S
    C31    O164      1.24975      .   S
    C27    C95       1.49941  1_655   S
    C27    O168      1.25012      .   S
    C25    C93       1.49924  1_655   S
    C25    O166      1.25008      .   S
    C29    C97       1.49922      .   S
    C29    O162      1.24990      .   S
    C97    O226      1.24999      .   S
    C93    O222      1.25004      .   S
    C99    O228      1.25000      .   S
    C95    O224      1.25006      .   S
    C5     C89       1.44846      .   S
    C5     O142      1.27544      .   S
    C1     C85       1.44847      .   S
    C1     O138      1.27542      .   S
    C7     C91       1.44827      .   S
    C7     O144      1.27525      .   S
    C3     C87       1.44826      .   S
    C3     O140      1.27470      .   S
    C85    O218      1.27531  1_455   S
    C89    O214      1.27516      .   S
    C91    O216      1.27515      .   S
    C87    O220      1.27543  1_455   S
