# CIF file generated by openbabel 2.4.90, see http://openbabel.sf.net
data_I
_chemical_name_common ''
_cell_length_a 14.678
_cell_length_b 21.376
_cell_length_c 21.376
_cell_angle_alpha 83.236
_cell_angle_beta 69.927
_cell_angle_gamma 69.929
_space_group_name_H-M_alt 'P 1'
_space_group_name_Hall 'P 1'
loop_
    _symmetry_equiv_pos_as_xyz
    x,y,z
loop_
    _atom_site_label
    _atom_site_type_symbol
    _atom_site_fract_x
    _atom_site_fract_y
    _atom_site_fract_z
    _atom_site_occupancy
    N0      N    0.04963   0.88786   0.13778   1.000
    N1      N    0.06233   0.86255   0.38775   1.000
    N2      N    0.04972   0.88764   0.63787   1.000
    N3      N    0.56269   0.36213   0.88755   1.000
    N4      N    0.56263   0.36200   0.38765   1.000
    N5      N    0.04995   0.38768   0.13767   1.000
    N6      N    0.81254   0.13757   0.61229   1.000
    N7      N    0.07520   0.11236   0.36212   1.000
    N8      N    0.81271   0.13769   0.11199   1.000
    N9      N    0.31260   0.63770   0.11216   1.000
    N10     N    0.31272   0.13768   0.11196   1.000
    N11     N    0.07528   0.11195   0.86245   1.000
    N12     N    0.54995   0.38767   0.13767   1.000
    N13     N    0.81259   0.63770   0.11216   1.000
    N14     N    0.57519   0.11236   0.36212   1.000
    N15     N    0.57528   0.11195   0.86245   1.000
    N16     N    0.04971   0.38774   0.63797   1.000
    N17     N    0.54970   0.38774   0.63797   1.000
    N18     N    0.31218   0.63810   0.61234   1.000
    N19     N    0.06264   0.36201   0.38771   1.000
    N20     N    0.54963   0.88786   0.13779   1.000
    N21     N    0.07517   0.61224   0.86249   1.000
    N22     N    0.81217   0.63810   0.61233   1.000
    N23     N    0.07538   0.61236   0.36194   1.000
    N24     N    0.31255   0.13757   0.61228   1.000
    N25     N    0.57517   0.61224   0.86248   1.000
    N26     N    0.54972   0.88765   0.63788   1.000
    N27     N    0.56232   0.86255   0.38775   1.000
    N28     N    0.57537   0.61236   0.36194   1.000
    N29     N    0.56252   0.86232   0.88799   1.000
    N30     N    0.06253   0.86232   0.88799   1.000
    N31     N    0.06269   0.36213   0.88740   1.000
    Zr32    Zr   0.56241   0.73112   0.51888   1.000
    O33     O    0.61881   0.71693   0.52934   1.000
    O34     O    0.50598   0.72070   0.53310   1.000
    O35     O    0.53782   0.76470   0.54594   1.000
    O36     O    0.58698   0.70405   0.48529   1.000
    Zr37    Zr   0.91846   0.01921   0.26888   1.000
    O38     O    0.91622   0.04605   0.23514   1.000
    O39     O    0.96073   0.03331   0.27934   1.000
    O40     O    0.85162   0.02976   0.28299   1.000
    O41     O    0.92740   0.98572   0.29601   1.000
    Zr42    Zr   0.06242   0.73112   0.51888   1.000
    O43     O    0.03783   0.76471   0.54592   1.000
    O44     O    0.11882   0.71693   0.52934   1.000
    O45     O    0.00598   0.72070   0.53310   1.000
    O46     O    0.08699   0.70404   0.48530   1.000
    Zr47    Zr   0.31250   0.76908   0.98115   1.000
    O48     O    0.36524   0.78318   0.97059   1.000
    O49     O    0.25972   0.77966   0.96711   1.000
    O50     O    0.27644   0.79595   0.01483   1.000
    O51     O    0.34854   0.73548   0.95413   1.000
    Zr52    Zr   0.31251   0.26890   0.48108   1.000
    O53     O    0.25986   0.27934   0.46687   1.000
    O54     O    0.34851   0.23530   0.45404   1.000
    O55     O    0.27640   0.29594   0.51467   1.000
    O56     O    0.36520   0.28308   0.47063   1.000
    Zr57    Zr   0.41860   0.51891   0.26893   1.000
    O58     O    0.41618   0.54589   0.23529   1.000
    O59     O    0.46082   0.53318   0.27930   1.000
    O60     O    0.42765   0.48533   0.29599   1.000
    O61     O    0.35173   0.52940   0.28309   1.000
    Zr62    Zr   0.31249   0.76913   0.48082   1.000
    O63     O    0.36512   0.78336   0.47040   1.000
    O64     O    0.25980   0.77963   0.46666   1.000
    O65     O    0.34865   0.73563   0.45370   1.000
    O66     O    0.27641   0.79597   0.51454   1.000
    Zr67    Zr   0.81249   0.76908   0.98115   1.000
    O68     O    0.84853   0.73548   0.95416   1.000
    O69     O    0.77643   0.79595   0.01481   1.000
    O70     O    0.75971   0.77966   0.96712   1.000
    O71     O    0.86523   0.78318   0.97060   1.000
    Zr72    Zr   0.70647   0.48111   0.73109   1.000
    O73     O    0.77332   0.46694   0.72060   1.000
    O74     O    0.66424   0.47066   0.71690   1.000
    O75     O    0.70895   0.51471   0.70406   1.000
    O76     O    0.69750   0.45406   0.76469   1.000
    Zr77    Zr   0.81248   0.76913   0.48082   1.000
    O78     O    0.75978   0.77963   0.46666   1.000
    O79     O    0.77640   0.79598   0.51453   1.000
    O80     O    0.84864   0.73563   0.45369   1.000
    O81     O    0.86512   0.78336   0.47039   1.000
    Zr82    Zr   0.81252   0.26893   0.98088   1.000
    O83     O    0.77654   0.29595   0.01450   1.000
    O84     O    0.86525   0.28304   0.97024   1.000
    O85     O    0.75977   0.27942   0.96678   1.000
    O86     O    0.84855   0.23517   0.95406   1.000
    Zr87    Zr   0.56254   0.23096   0.01890   1.000
    O88     O    0.53808   0.26455   0.04588   1.000
    O89     O    0.61884   0.21686   0.02944   1.000
    O90     O    0.50626   0.22044   0.03298   1.000
    O91     O    0.58709   0.20395   0.98534   1.000
    Zr92    Zr   0.70658   0.98085   0.73112   1.000
    O93     O    0.70906   0.01441   0.70406   1.000
    O94     O    0.77342   0.96675   0.72061   1.000
    O95     O    0.66442   0.97028   0.71700   1.000
    O96     O    0.69749   0.95399   0.76482   1.000
    Zr97    Zr   0.06250   0.23090   0.51910   1.000
    O98     O    0.11892   0.21670   0.52954   1.000
    O99     O    0.00615   0.22039   0.53327   1.000
    O100    O    0.08694   0.20402   0.48544   1.000
    O101    O    0.03798   0.26442   0.54626   1.000
    Zr102   Zr   0.06255   0.23096   0.01889   1.000
    O103    O    0.00627   0.22044   0.03296   1.000
    O104    O    0.11885   0.21686   0.02943   1.000
    O105    O    0.03809   0.26455   0.04587   1.000
    O106    O    0.08710   0.20395   0.98533   1.000
    Zr107   Zr   0.20659   0.98084   0.73112   1.000
    O108    O    0.27343   0.96675   0.72061   1.000
    O109    O    0.16443   0.97028   0.71700   1.000
    O110    O    0.20907   0.01441   0.70406   1.000
    O111    O    0.19749   0.95398   0.76485   1.000
    Zr112   Zr   0.91834   0.51922   0.76907   1.000
    O113    O    0.85150   0.52961   0.78331   1.000
    O114    O    0.96057   0.53335   0.77959   1.000
    O115    O    0.91561   0.54641   0.73563   1.000
    O116    O    0.92765   0.48549   0.79589   1.000
    Zr117   Zr   0.56240   0.73109   0.01916   1.000
    O118    O    0.50607   0.72058   0.03326   1.000
    O119    O    0.61872   0.71693   0.02965   1.000
    O120    O    0.53775   0.76482   0.04603   1.000
    O121    O    0.58695   0.70401   0.98562   1.000
    Zr122   Zr   0.06240   0.73109   0.01916   1.000
    O123    O    0.11873   0.71693   0.02966   1.000
    O124    O    0.03775   0.76482   0.04603   1.000
    O125    O    0.00607   0.72058   0.03326   1.000
    O126    O    0.08695   0.70401   0.98563   1.000
    Zr127   Zr   0.91859   0.51891   0.26892   1.000
    O128    O    0.85173   0.52939   0.28308   1.000
    O129    O    0.91617   0.54589   0.23529   1.000
    O130    O    0.96082   0.53318   0.27929   1.000
    O131    O    0.92764   0.48533   0.29598   1.000
    Zr132   Zr   0.31253   0.26893   0.98088   1.000
    O133    O    0.36526   0.28304   0.97024   1.000
    O134    O    0.27654   0.29595   0.01449   1.000
    O135    O    0.34856   0.23517   0.95405   1.000
    O136    O    0.25978   0.27942   0.96678   1.000
    Zr137   Zr   0.41851   0.01887   0.76912   1.000
    O138    O    0.35169   0.02941   0.78325   1.000
    O139    O    0.41601   0.04586   0.73553   1.000
    O140    O    0.46075   0.03290   0.77968   1.000
    O141    O    0.42768   0.98521   0.79602   1.000
    Zr142   Zr   0.20672   0.48084   0.23088   1.000
    O143    O    0.19769   0.45371   0.26440   1.000
    O144    O    0.20921   0.51443   0.20387   1.000
    O145    O    0.27357   0.46668   0.22040   1.000
    O146    O    0.16447   0.47039   0.21675   1.000
    Zr147   Zr   0.41846   0.01921   0.26888   1.000
    O148    O    0.46073   0.03331   0.27934   1.000
    O149    O    0.35163   0.02977   0.28299   1.000
    O150    O    0.42741   0.98572   0.29602   1.000
    O151    O    0.41622   0.04605   0.23514   1.000
    Zr152   Zr   0.20647   0.48111   0.73110   1.000
    O153    O    0.16424   0.47066   0.71690   1.000
    O154    O    0.27332   0.46694   0.72061   1.000
    O155    O    0.19750   0.45407   0.76470   1.000
    O156    O    0.20896   0.51471   0.70406   1.000
    Zr157   Zr   0.20653   0.98111   0.23089   1.000
    O158    O    0.27334   0.96703   0.22038   1.000
    O159    O    0.20901   0.01468   0.20388   1.000
    O160    O    0.16432   0.97053   0.21684   1.000
    O161    O    0.19741   0.95416   0.26451   1.000
    Zr162   Zr   0.70652   0.98111   0.23089   1.000
    O163    O    0.69740   0.95416   0.26451   1.000
    O164    O    0.70900   0.01469   0.20389   1.000
    O165    O    0.66431   0.97053   0.21684   1.000
    O166    O    0.77333   0.96703   0.22038   1.000
    Zr167   Zr   0.81251   0.26890   0.48108   1.000
    O168    O    0.86519   0.28308   0.47064   1.000
    O169    O    0.84850   0.23530   0.45404   1.000
    O170    O    0.77639   0.29594   0.51467   1.000
    O171    O    0.75986   0.27934   0.46687   1.000
    Zr172   Zr   0.56249   0.23090   0.51917   1.000
    O173    O    0.50614   0.22039   0.53331   1.000
    O174    O    0.61891   0.21670   0.52959   1.000
    O175    O    0.53797   0.26442   0.54631   1.000
    O176    O    0.58693   0.20402   0.48548   1.000
    Zr177   Zr   0.70672   0.48084   0.23088   1.000
    O178    O    0.66446   0.47039   0.21675   1.000
    O179    O    0.69768   0.45371   0.26438   1.000
    O180    O    0.70920   0.51443   0.20387   1.000
    O181    O    0.77356   0.46668   0.22040   1.000
    Zr182   Zr   0.41835   0.51922   0.76907   1.000
    O183    O    0.46058   0.53335   0.77959   1.000
    O184    O    0.41561   0.54641   0.73563   1.000
    O185    O    0.35150   0.52961   0.78332   1.000
    O186    O    0.42765   0.48550   0.79589   1.000
    Zr187   Zr   0.91851   0.01886   0.76912   1.000
    O188    O    0.85168   0.02940   0.78325   1.000
    O189    O    0.91601   0.04586   0.73553   1.000
    O190    O    0.96075   0.03290   0.77968   1.000
    O191    O    0.92768   0.98520   0.79600   1.000
    O192    O    0.56241   0.75768   0.99261   1.000
    O193    O    0.06242   0.75767   0.99261   1.000
    O194    O    0.18002   0.00739   0.75772   1.000
    O195    O    0.56253   0.25750   0.99227   1.000
    O196    O    0.56241   0.75774   0.49232   1.000
    O197    O    0.94519   0.49233   0.24235   1.000
    O198    O    0.06253   0.25750   0.99227   1.000
    O199    O    0.44513   0.99228   0.74256   1.000
    O200    O    0.17987   0.50766   0.75772   1.000
    O201    O    0.68001   0.00739   0.75772   1.000
    O202    O    0.81244   0.74257   0.50743   1.000
    O203    O    0.68010   0.50749   0.25741   1.000
    O204    O    0.44496   0.49262   0.74249   1.000
    O205    O    0.44504   0.99259   0.24235   1.000
    O206    O    0.67986   0.50766   0.75771   1.000
    O207    O    0.18010   0.50749   0.25741   1.000
    O208    O    0.31244   0.74257   0.50743   1.000
    O209    O    0.94503   0.99259   0.24235   1.000
    O210    O    0.81245   0.74250   0.00770   1.000
    O211    O    0.81253   0.24238   0.00744   1.000
    O212    O    0.31254   0.24238   0.00745   1.000
    O213    O    0.06242   0.75774   0.49231   1.000
    O214    O    0.44519   0.49233   0.24236   1.000
    O215    O    0.06252   0.25747   0.49252   1.000
    O216    O    0.31246   0.74250   0.00770   1.000
    O217    O    0.31255   0.24229   0.50764   1.000
    O218    O    0.94495   0.49262   0.74249   1.000
    O219    O    0.17997   0.00772   0.25742   1.000
    O220    O    0.81254   0.24229   0.50765   1.000
    O221    O    0.56251   0.25746   0.49255   1.000
    O222    O    0.94512   0.99228   0.74256   1.000
    O223    O    0.67997   0.00772   0.25743   1.000
loop_
    _geom_bond_atom_site_label_1
    _geom_bond_atom_site_label_2
    _geom_bond_distance
    _geom_bond_site_symmetry_2
    _ccdc_geom_bond_type
    Zr32   O33       0.87525      .   S
    N22    O33       3.67576      .   S
    Zr32   O34       0.87527      .   S
    N18    O34       3.67609      .   S
    Zr32   O35       0.86996      .   S
    N26    O35       3.54486      .   S
    Zr32   O36       0.87038      .   S
    N28    O36       3.54647      .   S
    Zr37   O38       0.86962      .   S
    N8     O38       3.54446      .   S
    Zr37   O39       0.87490      .   S
    N7     O39       3.67454  1_455   S
    Zr37   O40       0.87476      .   S
    N14    O40       3.67649      .   S
    Zr37   O41       0.86950  1_545   S
    N1     O41       3.54560  1_455   S
    Zr42   O43       0.86978      .   S
    N2     O43       3.54495      .   S
    Zr42   O44       0.87524      .   S
    N18    O44       3.67579      .   S
    Zr42   O45       0.87534      .   S
    N22    O45       3.67614  1_655   S
    Zr42   O46       0.87015      .   S
    N23    O46       3.54675      .   S
    Zr47   O48       0.87474      .   S
    N29    O48       3.67606      .   S
    Zr47   O49       0.87460      .   S
    N30    O49       3.67494      .   S
    Zr47   O50       0.86922  1_556   S
    N0     O50       3.54558      .   S
    Zr47   O51       0.86979      .   S
    N25    O51       3.54541      .   S
    Zr52   O53       0.87527      .   S
    N19    O53       3.67606      .   S
    Zr52   O54       0.86997      .   S
    N14    O54       3.54465      .   S
    Zr52   O55       0.87002      .   S
    N16    O55       3.54753      .   S
    Zr52   O56       0.87535      .   S
    N4     O56       3.67593      .   S
    Zr57   O58       0.86984      .   S
    N9     O58       3.54574      .   S
    Zr57   O59       0.87522      .   S
    N28    O59       3.67548      .   S
    Zr57   O60       0.87015      .   S
    N4     O60       3.54640      .   S
    Zr57   O61       0.87535      .   S
    N23    O61       3.67605      .   S
    Zr62   O63       0.87529      .   S
    N27    O63       3.67601      .   S
    Zr62   O64       0.87512      .   S
    N1     O64       3.67586      .   S
    Zr62   O65       0.86973      .   S
    N28    O65       3.54729      .   S
    Zr62   O66       0.86952      .   S
    N2     O66       3.54700      .   S
    Zr67   O68       0.86947      .   S
    N21    O68       3.54568  1_455   S
    Zr67   O69       0.86882  1_556   S
    N20    O69       3.54582      .   S
    Zr67   O70       0.87440      .   S
    N29    O70       3.67512      .   S
    Zr67   O71       0.87475      .   S
    N30    O71       3.67626  1_455   S
    Zr72   O73       0.87515      .   S
    N16    O73       3.67641  1_455   S
    Zr72   O74       0.87531      .   S
    N17    O74       3.67574      .   S
    Zr72   O75       0.87000      .   S
    N22    O75       3.54716      .   S
    Zr72   O76       0.87004      .   S
    N3     O76       3.54412      .   S
    Zr77   O78       0.87515      .   S
    N27    O78       3.67599      .   S
    Zr77   O79       0.86931      .   S
    N26    O79       3.54718      .   S
    Zr77   O80       0.86975      .   S
    N23    O80       3.54741  1_455   S
    Zr77   O81       0.87526      .   S
    N1     O81       3.67611  1_455   S
    Zr82   O83       0.86995  1_556   S
    N12    O83       3.54504      .   S
    Zr82   O84       0.87462      .   S
    N31    O84       3.67800  1_455   S
    Zr82   O85       0.87502      .   S
    N3     O85       3.67558      .   S
    Zr82   O86       0.86980      .   S
    N11    O86       3.54581  1_455   S
    Zr87   O88       0.86925      .   S
    N12    O88       3.54583      .   S
    Zr87   O89       0.87473      .   S
    N8     O89       3.67611      .   S
    Zr87   O90       0.87442      .   S
    N10    O90       3.67463      .   S
    Zr87   O91       0.86908  1_554   S
    N15    O91       3.54420      .   S
    Zr92   O93       0.86973  1_565   S
    N6     O93       3.54535      .   S
    Zr92   O94       0.87486      .   S
    N2     O94       3.67548  1_455   S
    Zr92   O95       0.87479      .   S
    N26    O95       3.67628      .   S
    Zr92   O96       0.86931      .   S
    N29    O96       3.54467      .   S
    Zr97   O98       0.87538      .   S
    N24    O98       3.67597      .   S
    Zr97   O99       0.87519      .   S
    N6     O99       3.67640  1_655   S
    Zr97   O100      0.86919      .   S
    N7     O100      3.54656      .   S
    Zr97   O101      0.87025      .   S
    N16    O101      3.54718      .   S
    Zr102  O103      0.87449      .   S
    N8     O103      3.67489  1_655   S
    Zr102  O104      0.87476      .   S
    N10    O104      3.67575      .   S
    Zr102  O105      0.86928      .   S
    N5     O105      3.54587      .   S
    Zr102  O106      0.86901  1_554   S
    N11    O106      3.54419      .   S
    Zr107  O108      0.87487      .   S
    N26    O108      3.67532      .   S
    Zr107  O109      0.87480      .   S
    N2     O109      3.67639      .   S
    Zr107  O110      0.86975  1_565   S
    N24    O110      3.54541      .   S
    Zr107  O111      0.86974      .   S
    N30    O111      3.54433      .   S
    Zr112  O113      0.87520      .   S
    N25    O113      3.67567      .   S
    Zr112  O114      0.87522      .   S
    N21    O114      3.67571  1_455   S
    Zr112  O115      0.86955      .   S
    N22    O115      3.54689      .   S
    Zr112  O116      0.86938      .   S
    N31    O116      3.54513  1_455   S
    Zr117  O118      0.87489      .   S
    N9     O118      3.67536      .   S
    Zr117  O119      0.87456      .   S
    N13    O119      3.67563      .   S
    Zr117  O120      0.86979      .   S
    N20    O120      3.54393      .   S
    Zr117  O121      0.86951  1_554   S
    N25    O121      3.54512      .   S
    Zr122  O123      0.87461      .   S
    N9     O123      3.67572      .   S
    Zr122  O124      0.86981      .   S
    N0     O124      3.54391      .   S
    Zr122  O125      0.87496      .   S
    N13    O125      3.67545  1_655   S
    Zr122  O126      0.86943  1_554   S
    N21    O126      3.54513      .   S
    Zr127  O128      0.87535      .   S
    N28    O128      3.67608      .   S
    Zr127  O129      0.86979      .   S
    N13    O129      3.54576      .   S
    Zr127  O130      0.87533      .   S
    N23    O130      3.67562  1_455   S
    Zr127  O131      0.87016      .   S
    N19    O131      3.54738  1_455   S
    Zr132  O133      0.87463      .   S
    N3     O133      3.67732      .   S
    Zr132  O134      0.86988  1_556   S
    N5     O134      3.54509      .   S
    Zr132  O135      0.86985      .   S
    N15    O135      3.54569      .   S
    Zr132  O136      0.87503      .   S
    N31    O136      3.67783      .   S
    Zr137  O138      0.87470      .   S
    N11    O138      3.67625      .   S
    Zr137  O139      0.86941      .   S
    N24    O139      3.54630      .   S
    Zr137  O140      0.87464      .   S
    N15    O140      3.67513      .   S
    Zr137  O141      0.86927  1_545   S
    N29    O141      3.54522      .   S
    Zr142  O143      0.86995      .   S
    N19    O143      3.54731      .   S
    Zr142  O144      0.86962      .   S
    N9     O144      3.54615      .   S
    Zr142  O145      0.87509      .   S
    N12    O145      3.67604      .   S
    Zr142  O146      0.87485      .   S
    N5     O146      3.67465      .   S
    Zr147  O148      0.87481      .   S
    N14    O148      3.67447      .   S
    Zr147  O149      0.87476      .   S
    N7     O149      3.67650      .   S
    Zr147  O150      0.86950  1_545   S
    N27    O150      3.54536      .   S
    Zr147  O151      0.86961      .   S
    N10    O151      3.54497      .   S
    Zr152  O153      0.87535      .   S
    N16    O153      3.67587      .   S
    Zr152  O154      0.87514      .   S
    N17    O154      3.67628      .   S
    Zr152  O155      0.86999      .   S
    N31    O155      3.54250      .   S
    Zr152  O156      0.87002      .   S
    N18    O156      3.54714      .   S
    Zr157  O158      0.87454      .   S
    N20    O158      3.67501      .   S
    Zr157  O159      0.86926  1_565   S
    N10    O159      3.54520      .   S
    Zr157  O160      0.87464      .   S
    N0     O160      3.67568      .   S
    Zr157  O161      0.86931      .   S
    N1     O161      3.54549      .   S
    Zr162  O163      0.86932      .   S
    N27    O163      3.54539      .   S
    Zr162  O164      0.86924  1_565   S
    N8     O164      3.54505      .   S
    Zr162  O165      0.87462      .   S
    N20    O165      3.67561      .   S
    Zr162  O166      0.87455      .   S
    N0     O166      3.67516  1_455   S
    Zr167  O168      0.87538      .   S
    N19    O168      3.67593  1_455   S
    Zr167  O169      0.86996      .   S
    N7     O169      3.54475  1_455   S
    Zr167  O170      0.87003      .   S
    N17    O170      3.54756      .   S
    Zr167  O171      0.87525      .   S
    N4     O171      3.67683      .   S
    Zr172  O173      0.87512      .   S
    N24    O173      3.67613      .   S
    Zr172  O174      0.87512      .   S
    N6     O174      3.67541      .   S
    Zr172  O175      0.86991      .   S
    N17    O175      3.54664      .   S
    Zr172  O176      0.86958      .   S
    N14    O176      3.54731      .   S
    Zr177  O178      0.87486      .   S
    N12    O178      3.67456      .   S
    Zr177  O179      0.86965      .   S
    N4     O179      3.54694      .   S
    Zr177  O180      0.86963      .   S
    N13    O180      3.54617      .   S
    Zr177  O181      0.87508      .   S
    N5     O181      3.67614  1_455   S
    Zr182  O183      0.87517      .   S
    N25    O183      3.67565      .   S
    Zr182  O184      0.86956      .   S
    N18    O184      3.54679      .   S
    Zr182  O185      0.87521      .   S
    N21    O185      3.67569      .   S
    Zr182  O186      0.86939      .   S
    N3     O186      3.54722      .   S
    Zr187  O188      0.87470      .   S
    N15    O188      3.67626      .   S
    Zr187  O189      0.86942      .   S
    N6     O189      3.54620      .   S
    Zr187  O190      0.87471      .   S
    N11    O190      3.67521  1_455   S
    Zr187  O191      0.86900  1_545   S
    N30    O191      3.54557  1_455   S
    Zr117  O192      0.75435  1_554   S
    N29    O192      2.97094      .   S
    Zr122  O193      0.75439  1_554   S
    N30    O193      2.97091      .   S
    Zr107  O194      0.75444  1_565   S
    N11    O194      2.97133      .   S
    Zr87   O195      0.75482  1_554   S
    N3     O195      2.97220      .   S
    Zr32   O196      0.75500      .   S
    N27    O196      2.97255      .   S
    Zr127  O197      0.75461      .   S
    N5     O197      2.97197  1_455   S
    Zr102  O198      0.75477  1_554   S
    N31    O198      2.97430      .   S
    Zr137  O199      0.75458  1_545   S
    N26    O199      2.97161      .   S
    N21    O200      2.97220      .   S
    Zr152  O200      0.75482      .   S
    Zr92   O201      0.75443  1_565   S
    N15    O201      2.97134      .   S
    Zr77   O202      0.75494      .   S
    N22    O202      2.97245      .   S
    N28    O203      2.97286      .   S
    Zr177  O203      0.75503      .   S
    N17    O204      2.97285      .   S
    Zr182  O204      0.75502      .   S
    Zr147  O205      0.75450  1_545   S
    N20    O205      2.97147      .   S
    Zr72   O206      0.75486      .   S
    N25    O206      2.97230      .   S
    Zr142  O207      0.75503      .   S
    N23    O207      2.97282      .   S
    Zr62   O208      0.75494      .   S
    N18    O208      2.97249      .   S
    Zr37   O209      0.75448  1_545   S
    N0     O209      2.97146  1_455   S
    Zr67   O210      0.75427  1_556   S
    N13    O210      2.97087      .   S
    Zr82   O211      0.75402  1_556   S
    N8     O211      2.97062      .   S
    Zr132  O212      0.75411  1_556   S
    N10    O212      2.97014      .   S
    Zr42   O213      0.75509      .   S
    N1     O213      2.97233      .   S
    Zr57   O214      0.75465      .   S
    N12    O214      2.97206      .   S
    Zr97   O215      0.75450      .   S
    N19    O215      2.97214      .   S
    Zr47   O216      0.75429  1_556   S
    N9     O216      2.97092      .   S
    Zr52   O217      0.75489      .   S
    N24    O217      2.97225      .   S
    Zr112  O218      0.75505      .   S
    N16    O218      2.97288  1_455   S
    N7     O219      2.97184      .   S
    Zr157  O219      0.75455  1_565   S
    Zr167  O220      0.75490      .   S
    N6     O220      2.97234      .   S
    Zr172  O221      0.75494      .   S
    N4     O221      2.97348      .   S
    Zr187  O222      0.75457  1_545   S
    N2     O222      2.97168  1_455   S
    Zr162  O223      0.75458  1_565   S
    N14    O223      2.97182      .   S
