# CIF file generated by openbabel 2.4.90, see http://openbabel.sf.net
data_I
_chemical_name_common ''
_cell_length_a 14.678
_cell_length_b 21.376
_cell_length_c 21.376
_cell_angle_alpha 83.236
_cell_angle_beta 69.927
_cell_angle_gamma 69.929
_space_group_name_H-M_alt 'P 1'
_space_group_name_Hall 'P 1'
loop_
    _symmetry_equiv_pos_as_xyz
    x,y,z
loop_
    _atom_site_label
    _atom_site_type_symbol
    _atom_site_fract_x
    _atom_site_fract_y
    _atom_site_fract_z
    _atom_site_occupancy
    Zr0     Zr   0.06255   0.23096   0.01889   1.000
    Zr1     Zr   0.06250   0.23090   0.51910   1.000
    Zr2     Zr   0.06240   0.73109   0.01916   1.000
    Zr3     Zr   0.06242   0.73112   0.51888   1.000
    Zr4     Zr   0.56254   0.23096   0.01890   1.000
    Zr5     Zr   0.56249   0.23090   0.51917   1.000
    Zr6     Zr   0.56240   0.73109   0.01916   1.000
    Zr7     Zr   0.56241   0.73112   0.51888   1.000
    Zr8     Zr   0.31251   0.26890   0.48108   1.000
    Zr9     Zr   0.31253   0.26893   0.98088   1.000
    Zr10    Zr   0.31249   0.76913   0.48082   1.000
    Zr11    Zr   0.31250   0.76908   0.98115   1.000
    Zr12    Zr   0.81251   0.26890   0.48108   1.000
    Zr13    Zr   0.81252   0.26893   0.98088   1.000
    Zr14    Zr   0.81248   0.76913   0.48082   1.000
    Zr15    Zr   0.81249   0.76908   0.98115   1.000
    Zr16    Zr   0.41846   0.01921   0.26888   1.000
    Zr17    Zr   0.41851   0.01887   0.76912   1.000
    Zr18    Zr   0.41860   0.51891   0.26893   1.000
    Zr19    Zr   0.41835   0.51922   0.76907   1.000
    Zr20    Zr   0.91846   0.01921   0.26888   1.000
    Zr21    Zr   0.91851   0.01886   0.76912   1.000
    Zr22    Zr   0.91859   0.51891   0.26892   1.000
    Zr23    Zr   0.91834   0.51922   0.76907   1.000
    Zr24    Zr   0.20672   0.48084   0.23088   1.000
    Zr25    Zr   0.20647   0.48111   0.73110   1.000
    Zr26    Zr   0.20653   0.98111   0.23089   1.000
    Zr27    Zr   0.20659   0.98084   0.73112   1.000
    Zr28    Zr   0.70672   0.48084   0.23088   1.000
    Zr29    Zr   0.70647   0.48111   0.73109   1.000
    Zr30    Zr   0.70652   0.98111   0.23089   1.000
    Zr31    Zr   0.70658   0.98085   0.73112   1.000
    N32     N    0.04963   0.88786   0.13778   1.000
    O33     O    0.05010   0.96948   0.21229   1.000
    O34     O    0.12212   0.95995   0.20279   1.000
    O35     O    0.89312   0.96247   0.21937   1.000
    O36     O    0.84014   0.95295   0.20987   1.000
    O37     O    0.01310   0.79855   0.07290   1.000
    O38     O    0.24037   0.82281   0.04852   1.000
    N39     N    0.06233   0.86255   0.38775   1.000
    O40     O    0.18830   0.92721   0.29814   1.000
    O41     O    0.98024   0.78808   0.46947   1.000
    O42     O    0.91775   0.79758   0.45996   1.000
    O43     O    0.93635   0.95223   0.32314   1.000
    O44     O    0.14458   0.78063   0.46201   1.000
    O45     O    0.20710   0.79013   0.45249   1.000
    N46     N    0.04972   0.88764   0.63787   1.000
    O47     O    0.84025   0.95265   0.71010   1.000
    O48     O    0.89323   0.96216   0.71960   1.000
    O49     O    0.24032   0.82282   0.54826   1.000
    O50     O    0.12227   0.95972   0.70288   1.000
    O51     O    0.05025   0.96922   0.71237   1.000
    O52     O    0.01323   0.79829   0.57297   1.000
    N53     N    0.56269   0.36213   0.88755   1.000
    O54     O    0.68854   0.42701   0.79829   1.000
    O55     O    0.48050   0.28765   0.96911   1.000
    O56     O    0.41799   0.29715   0.95960   1.000
    O57     O    0.43696   0.45177   0.82271   1.000
    O58     O    0.70702   0.28992   0.95268   1.000
    O59     O    0.64453   0.28042   0.96218   1.000
    N60     N    0.56263   0.36200   0.38765   1.000
    O61     O    0.43670   0.45175   0.32306   1.000
    O62     O    0.41789   0.29726   0.46017   1.000
    O63     O    0.48038   0.28777   0.46969   1.000
    O64     O    0.68865   0.42658   0.29787   1.000
    O65     O    0.70720   0.28978   0.45266   1.000
    O66     O    0.64470   0.28028   0.46218   1.000
    N67     N    0.04995   0.38768   0.13767   1.000
    O68     O    0.05018   0.46946   0.21213   1.000
    O69     O    0.12222   0.45994   0.20262   1.000
    O70     O    0.89338   0.46204   0.21943   1.000
    O71     O    0.84041   0.45252   0.20992   1.000
    O72     O    0.24056   0.32297   0.04810   1.000
    O73     O    0.01362   0.29815   0.07285   1.000
    N74     N    0.81254   0.13757   0.61229   1.000
    O75     O    0.94980   0.20987   0.54744   1.000
    O76     O    0.88730   0.21937   0.53793   1.000
    O77     O    0.73784   0.21199   0.53049   1.000
    O78     O    0.67533   0.20249   0.54001   1.000
    O79     O    0.71153   0.04798   0.67700   1.000
    O80     O    0.91350   0.07285   0.70194   1.000
    N81     N    0.07520   0.11236   0.36212   1.000
    O82     O    0.11138   0.17714   0.45177   1.000
    O83     O    0.28480   0.04032   0.29709   1.000
    O84     O    0.23181   0.03080   0.28760   1.000
    O85     O    0.00301   0.04741   0.28980   1.000
    O86     O    0.07502   0.03789   0.28031   1.000
    O87     O    0.88450   0.20169   0.42701   1.000
    N88     N    0.81271   0.13769   0.11199   1.000
    O89     O    0.88747   0.21940   0.03752   1.000
    O90     O    0.94998   0.20991   0.04702   1.000
    O91     O    0.73762   0.21225   0.03048   1.000
    O92     O    0.67513   0.20276   0.03998   1.000
    O93     O    0.91398   0.07289   0.20140   1.000
    O94     O    0.71147   0.04827   0.17689   1.000
    N95     N    0.31260   0.63770   0.11216   1.000
    O96     O    0.21169   0.54803   0.17687   1.000
    O97     O    0.38727   0.71956   0.03785   1.000
    O98     O    0.44974   0.71006   0.04735   1.000
    O99     O    0.41376   0.57287   0.20166   1.000
    O100    O    0.23757   0.71228   0.03065   1.000
    O101    O    0.17505   0.70278   0.04015   1.000
    N102    N    0.31272   0.13768   0.11196   1.000
    O103    O    0.21150   0.04825   0.17687   1.000
    O104    O    0.17514   0.20275   0.03997   1.000
    O105    O    0.23763   0.21224   0.03047   1.000
    O106    O    0.41398   0.07289   0.20140   1.000
    O107    O    0.44998   0.20991   0.04705   1.000
    O108    O    0.38747   0.21941   0.03755   1.000
    N109    N    0.07528   0.11195   0.86245   1.000
    O110    O    0.07501   0.03742   0.78075   1.000
    O111    O    0.00299   0.04693   0.79025   1.000
    O112    O    0.88458   0.20141   0.92723   1.000
    O113    O    0.11165   0.17694   0.95177   1.000
    O114    O    0.23188   0.03044   0.78787   1.000
    O115    O    0.28486   0.03995   0.79737   1.000
    N116    N    0.54995   0.38767   0.13767   1.000
    O117    O    0.55018   0.46945   0.21213   1.000
    O118    O    0.62221   0.45994   0.20262   1.000
    O119    O    0.39339   0.46204   0.21944   1.000
    O120    O    0.34042   0.45252   0.20993   1.000
    O121    O    0.51361   0.29815   0.07286   1.000
    O122    O    0.74056   0.32297   0.04812   1.000
    N123    N    0.81259   0.63770   0.11216   1.000
    O124    O    0.91375   0.57287   0.20165   1.000
    O125    O    0.73756   0.71228   0.03064   1.000
    O126    O    0.67504   0.70278   0.04015   1.000
    O127    O    0.88726   0.71956   0.03785   1.000
    O128    O    0.94973   0.71007   0.04735   1.000
    O129    O    0.71169   0.54803   0.17686   1.000
    N130    N    0.57519   0.11236   0.36212   1.000
    O131    O    0.61137   0.17713   0.45180   1.000
    O132    O    0.50300   0.04741   0.28980   1.000
    O133    O    0.57502   0.03789   0.28031   1.000
    O134    O    0.78479   0.04032   0.29711   1.000
    O135    O    0.73181   0.03079   0.28761   1.000
    O136    O    0.38451   0.20170   0.42700   1.000
    N137    N    0.57528   0.11195   0.86245   1.000
    O138    O    0.61164   0.17693   0.95178   1.000
    O139    O    0.73187   0.03044   0.78787   1.000
    O140    O    0.78485   0.03995   0.79737   1.000
    O141    O    0.57500   0.03743   0.78075   1.000
    O142    O    0.50299   0.04693   0.79025   1.000
    O143    O    0.38459   0.20141   0.92722   1.000
    N144    N    0.04971   0.38774   0.63797   1.000
    O145    O    0.04998   0.46974   0.71220   1.000
    O146    O    0.12202   0.46022   0.70270   1.000
    O147    O    0.01347   0.29793   0.57342   1.000
    O148    O    0.24028   0.32298   0.54827   1.000
    O149    O    0.84017   0.45277   0.71011   1.000
    O150    O    0.89314   0.46230   0.71961   1.000
    N151    N    0.54970   0.38774   0.63797   1.000
    O152    O    0.34018   0.45277   0.71012   1.000
    O153    O    0.39315   0.46230   0.71962   1.000
    O154    O    0.62201   0.46022   0.70270   1.000
    O155    O    0.54998   0.46975   0.71220   1.000
    O156    O    0.51346   0.29793   0.57344   1.000
    O157    O    0.74027   0.32298   0.54827   1.000
    N158    N    0.31218   0.63810   0.61234   1.000
    O159    O    0.21144   0.54831   0.67703   1.000
    O160    O    0.41287   0.57359   0.70219   1.000
    O161    O    0.17521   0.70274   0.53981   1.000
    O162    O    0.23773   0.71224   0.53029   1.000
    O163    O    0.44954   0.71027   0.54732   1.000
    O164    O    0.38706   0.71978   0.53780   1.000
    N165    N    0.06264   0.36201   0.38771   1.000
    O166    O    0.18865   0.42659   0.29791   1.000
    O167    O    0.98038   0.28777   0.46970   1.000
    O168    O    0.91788   0.29727   0.46019   1.000
    O169    O    0.93669   0.45174   0.32305   1.000
    O170    O    0.20721   0.28978   0.45266   1.000
    O171    O    0.14471   0.28029   0.46217   1.000
    N172    N    0.54963   0.88786   0.13779   1.000
    O173    O    0.55009   0.96948   0.21229   1.000
    O174    O    0.62211   0.95995   0.20279   1.000
    O175    O    0.39313   0.96247   0.21937   1.000
    O176    O    0.34015   0.95295   0.20987   1.000
    O177    O    0.51310   0.79855   0.07290   1.000
    O178    O    0.74036   0.82281   0.04846   1.000
    N179    N    0.07517   0.61224   0.86249   1.000
    O180    O    0.88457   0.70188   0.92717   1.000
    O181    O    0.23169   0.53047   0.78807   1.000
    O182    O    0.28466   0.54000   0.79756   1.000
    O183    O    0.11150   0.67692   0.95210   1.000
    O184    O    0.00280   0.54748   0.79010   1.000
    O185    O    0.07484   0.53795   0.78061   1.000
    N186    N    0.81217   0.63810   0.61233   1.000
    O187    O    0.94954   0.71028   0.54732   1.000
    O188    O    0.88705   0.71978   0.53780   1.000
    O189    O    0.67521   0.70274   0.53981   1.000
    O190    O    0.73772   0.71224   0.53029   1.000
    O191    O    0.71144   0.54831   0.67702   1.000
    O192    O    0.91287   0.57359   0.70219   1.000
    N193    N    0.07538   0.61236   0.36194   1.000
    O194    O    0.88480   0.70213   0.42656   1.000
    O195    O    0.00304   0.54745   0.28966   1.000
    O196    O    0.07508   0.53793   0.28015   1.000
    O197    O    0.11156   0.67697   0.45173   1.000
    O198    O    0.28487   0.53988   0.29724   1.000
    O199    O    0.23190   0.53036   0.28773   1.000
    N200    N    0.31255   0.13757   0.61228   1.000
    O201    O    0.23785   0.21199   0.53048   1.000
    O202    O    0.17535   0.20249   0.53999   1.000
    O203    O    0.21154   0.04797   0.67699   1.000
    O204    O    0.38731   0.21937   0.53793   1.000
    O205    O    0.44980   0.20987   0.54745   1.000
    O206    O    0.41351   0.07285   0.70194   1.000
    N207    N    0.57517   0.61224   0.86248   1.000
    O208    O    0.38458   0.70187   0.92711   1.000
    O209    O    0.73169   0.53047   0.78806   1.000
    O210    O    0.78466   0.54000   0.79756   1.000
    O211    O    0.61150   0.67693   0.95209   1.000
    O212    O    0.57483   0.53794   0.78061   1.000
    O213    O    0.50280   0.54747   0.79010   1.000
    N214    N    0.54972   0.88765   0.63788   1.000
    O215    O    0.51323   0.79828   0.57301   1.000
    O216    O    0.34026   0.95265   0.71010   1.000
    O217    O    0.39324   0.96216   0.71960   1.000
    O218    O    0.62226   0.95972   0.70288   1.000
    O219    O    0.55024   0.96923   0.71237   1.000
    O220    O    0.74032   0.82282   0.54823   1.000
    N221    N    0.56232   0.86255   0.38775   1.000
    O222    O    0.64457   0.78063   0.46201   1.000
    O223    O    0.70709   0.79014   0.45249   1.000
    O224    O    0.68829   0.92720   0.29814   1.000
    O225    O    0.43635   0.95224   0.32315   1.000
    O226    O    0.48024   0.78808   0.46950   1.000
    O227    O    0.41776   0.79758   0.45999   1.000
    N228    N    0.57537   0.61236   0.36194   1.000
    O229    O    0.78486   0.53988   0.29724   1.000
    O230    O    0.73189   0.53036   0.28773   1.000
    O231    O    0.61156   0.67697   0.45170   1.000
    O232    O    0.38481   0.70213   0.42657   1.000
    O233    O    0.50304   0.54745   0.28966   1.000
    O234    O    0.57507   0.53793   0.28015   1.000
    N235    N    0.56252   0.86232   0.88799   1.000
    O236    O    0.41797   0.79728   0.96004   1.000
    O237    O    0.48045   0.78779   0.96954   1.000
    O238    O    0.68839   0.92713   0.79853   1.000
    O239    O    0.70693   0.79024   0.95309   1.000
    O240    O    0.64440   0.78074   0.96260   1.000
    O241    O    0.43685   0.95155   0.82292   1.000
    N242    N    0.06253   0.86232   0.88799   1.000
    O243    O    0.91797   0.79728   0.96005   1.000
    O244    O    0.98044   0.78778   0.96956   1.000
    O245    O    0.93684   0.95154   0.82288   1.000
    O246    O    0.18839   0.92713   0.79859   1.000
    O247    O    0.20694   0.79024   0.95306   1.000
    O248    O    0.14441   0.78074   0.96257   1.000
    N249    N    0.06269   0.36213   0.88740   1.000
    O250    O    0.93695   0.45177   0.82270   1.000
    O251    O    0.91798   0.29715   0.95960   1.000
    O252    O    0.98049   0.28766   0.96910   1.000
    O253    O    0.14454   0.28043   0.96218   1.000
    O254    O    0.20703   0.28992   0.95268   1.000
    O255    O    0.18854   0.42703   0.79830   1.000
loop_
    _geom_bond_atom_site_label_1
    _geom_bond_atom_site_label_2
    _geom_bond_distance
    _geom_bond_site_symmetry_2
    _ccdc_geom_bond_type
    N32    O33       2.50005      .   S
    Zr20   O33       1.90150  1_645   S
    N32    O34       2.84290      .   S
    Zr26   O34       1.74929      .   S
    N32    O35       2.50056  1_455   S
    Zr20   O35       1.90031  1_545   S
    N32    O36       2.84280  1_455   S
    Zr30   O36       1.74910      .   S
    N32    O37       2.77352      .   S
    Zr2    O37       1.73961      .   S
    N32    O38       2.77460      .   S
    Zr11   O38       1.73845  1_556   S
    N39    O40       2.77450      .   S
    Zr26   O40       1.73863      .   S
    N39    O41       2.50074  1_455   S
    Zr3    O41       1.90170  1_455   S
    N39    O42       2.84313  1_455   S
    Zr14   O42       1.75052      .   S
    N39    O43       2.77460  1_455   S
    Zr20   O43       1.73900  1_545   S
    N39    O44       2.50053      .   S
    Zr3    O44       1.90232      .   S
    N39    O45       2.84299      .   S
    Zr10   O45       1.75024      .   S
    N46    O47       2.84300  1_455   S
    Zr31   O47       1.74972      .   S
    N46    O48       2.50106  1_455   S
    Zr21   O48       1.89933  1_545   S
    N46    O49       2.77527      .   S
    Zr10   O49       1.73903      .   S
    N46    O50       2.84328      .   S
    Zr27   O50       1.74961      .   S
    N46    O51       2.49986      .   S
    Zr21   O51       1.90291  1_645   S
    N46    O52       2.77421      .   S
    Zr3    O52       1.73955      .   S
    N53    O54       2.77352      .   S
    Zr29   O54       1.74008      .   S
    N53    O55       2.49996      .   S
    Zr4    O55       1.90427  1_554   S
    N53    O56       2.84391      .   S
    Zr9    O56       1.74925      .   S
    N53    O57       2.77516      .   S
    Zr19   O57       1.73879      .   S
    N53    O58       2.84311      .   S
    Zr13   O58       1.75004      .   S
    N53    O59       2.50158      .   S
    Zr4    O59       1.89891  1_554   S
    N60    O61       2.77445      .   S
    Zr18   O61       1.74030      .   S
    N60    O62       2.84322      .   S
    Zr8    O62       1.75071      .   S
    N60    O63       2.50149      .   S
    Zr5    O63       1.90133      .   S
    N60    O64       2.77521      .   S
    Zr28   O64       1.73930      .   S
    N60    O65       2.84390      .   S
    Zr12   O65       1.75051      .   S
    N60    O66       2.50166      .   S
    Zr5    O66       1.90171      .   S
    N67    O68       2.50052      .   S
    Zr22   O68       1.90084  1_655   S
    N67    O69       2.84238      .   S
    Zr24   O69       1.74970      .   S
    N67    O70       2.50060  1_455   S
    Zr22   O70       1.90123      .   S
    N67    O71       2.84322  1_455   S
    Zr28   O71       1.75016      .   S
    N67    O72       2.77429      .   S
    Zr9    O72       1.73975  1_556   S
    N67    O73       2.77466      .   S
    Zr0    O73       1.73856      .   S
    N74    O75       2.84329      .   S
    Zr1    O75       1.75038  1_455   S
    N74    O76       2.50058      .   S
    Zr12   O76       1.90203      .   S
    N74    O77       2.50081      .   S
    Zr12   O77       1.90109      .   S
    N74    O78       2.84279      .   S
    Zr5    O78       1.75023      .   S
    N74    O79       2.77433      .   S
    Zr31   O79       1.73946  1_565   S
    N74    O80       2.77482      .   S
    Zr21   O80       1.73885      .   S
    N81    O82       2.77502      .   S
    Zr1    O82       1.73838      .   S
    N81    O83       2.84343      .   S
    Zr16   O83       1.74952      .   S
    N81    O84       2.50024      .   S
    Zr26   O84       1.90209  1_565   S
    N81    O85       2.84235      .   S
    Zr20   O85       1.74979  1_655   S
    N81    O86       2.50077      .   S
    Zr26   O86       1.89977  1_565   S
    N81    O87       2.77404  1_455   S
    Zr12   O87       1.73992      .   S
    N88    O89       2.50017      .   S
    Zr13   O89       1.89997  1_556   S
    N88    O90       2.84268      .   S
    Zr0    O90       1.74898  1_455   S
    N88    O91       2.49990      .   S
    Zr13   O91       1.90056  1_556   S
    N88    O92       2.84318      .   S
    Zr4    O92       1.74947      .   S
    N88    O93       2.77386      .   S
    Zr20   O93       1.73924      .   S
    N88    O94       2.77423      .   S
    Zr30   O94       1.73847  1_565   S
    N95    O96       2.77471      .   S
    Zr24   O96       1.73924      .   S
    N95    O97       2.50057      .   S
    Zr11   O97       1.89926  1_556   S
    N95    O98       2.84285      .   S
    Zr6    O98       1.74978      .   S
    N95    O99       2.77443      .   S
    Zr18   O99       1.73967      .   S
    N95    O100      2.49964      .   S
    Zr11   O100      1.90229  1_556   S
    N95    O101      2.84298      .   S
    Zr2    O101      1.74922      .   S
    N102   O103      2.77432      .   S
    Zr26   O103      1.73853  1_565   S
    N102   O104      2.84277      .   S
    Zr0    O104      1.74953      .   S
    N102   O105      2.49945      .   S
    Zr9    O105      1.90057  1_556   S
    N102   O106      2.77434      .   S
    Zr16   O106      1.73922      .   S
    N102   O107      2.84241      .   S
    Zr4    O107      1.74884      .   S
    N102   O108      2.49971      .   S
    Zr9    O108      1.90039  1_556   S
    N109   O110      2.50043      .   S
    Zr27   O110      1.90024  1_565   S
    N109   O111      2.84273      .   S
    Zr21   O111      1.74942  1_655   S
    N109   O112      2.77467  1_455   S
    Zr13   O112      1.73960      .   S
    N109   O113      2.77380      .   S
    Zr0    O113      1.73802  1_554   S
    N109   O114      2.50007      .   S
    Zr27   O114      1.90154  1_565   S
    N109   O115      2.84325      .   S
    Zr17   O115      1.74941      .   S
    N116   O117      2.50051      .   S
    Zr18   O117      1.90080      .   S
    N116   O118      2.84228      .   S
    Zr28   O118      1.74973      .   S
    N116   O119      2.50060      .   S
    Zr18   O119      1.90126      .   S
    N116   O120      2.84314      .   S
    Zr24   O120      1.75018      .   S
    N116   O121      2.77466      .   S
    Zr4    O121      1.73850      .   S
    N116   O122      2.77421      .   S
    Zr13   O122      1.73991  1_556   S
    N123   O124      2.77449      .   S
    Zr22   O124      1.73957      .   S
    N123   O125      2.49964      .   S
    Zr15   O125      1.90226  1_556   S
    N123   O126      2.84295      .   S
    Zr6    O126      1.74911      .   S
    N123   O127      2.50055      .   S
    Zr15   O127      1.89923  1_556   S
    N123   O128      2.84287      .   S
    Zr2    O128      1.74992  1_455   S
    N123   O129      2.77473      .   S
    Zr28   O129      1.73926      .   S
    N130   O131      2.77535      .   S
    Zr5    O131      1.73915      .   S
    N130   O132      2.84235      .   S
    Zr16   O132      1.74962      .   S
    N130   O133      2.50082      .   S
    Zr30   O133      1.89975  1_565   S
    N130   O134      2.84340      .   S
    Zr20   O134      1.74952      .   S
    N130   O135      2.50016      .   S
    Zr30   O135      1.90229  1_565   S
    N130   O136      2.77391      .   S
    Zr8    O136      1.73994      .   S
    N137   O138      2.77374      .   S
    Zr4    O138      1.73817  1_554   S
    N137   O139      2.50009      .   S
    Zr31   O139      1.90151  1_565   S
    N137   O140      2.84326      .   S
    Zr21   O140      1.74940      .   S
    N137   O141      2.50045      .   S
    Zr31   O141      1.90023  1_565   S
    N137   O142      2.84272      .   S
    Zr17   O142      1.74927      .   S
    N137   O143      2.77450      .   S
    Zr9    O143      1.73969      .   S
    N144   O145      2.50098      .   S
    Zr23   O145      1.90204  1_655   S
    N144   O146      2.84309      .   S
    Zr25   O146      1.75070      .   S
    N144   O147      2.77513      .   S
    Zr1    O147      1.74050      .   S
    N144   O148      2.77544      .   S
    Zr8    O148      1.74003      .   S
    N144   O149      2.84338  1_455   S
    Zr29   O149      1.75030      .   S
    N144   O150      2.50107  1_455   S
    Zr23   O150      1.90149      .   S
    N151   O152      2.84326      .   S
    Zr25   O152      1.75029      .   S
    N151   O153      2.50101      .   S
    Zr19   O153      1.90141      .   S
    N151   O154      2.84300      .   S
    Zr29   O154      1.75062      .   S
    N151   O155      2.50095      .   S
    Zr19   O155      1.90194      .   S
    N151   O156      2.77497      .   S
    Zr5    O156      1.73982      .   S
    N151   O157      2.77543      .   S
    Zr12   O157      1.74007      .   S
    N158   O159      2.77515      .   S
    Zr25   O159      1.74005      .   S
    N158   O160      2.77500      .   S
    Zr19   O160      1.73912      .   S
    N158   O161      2.84303      .   S
    Zr3    O161      1.75048      .   S
    N158   O162      2.50075      .   S
    Zr10   O162      1.90200      .   S
    N158   O163      2.84316      .   S
    Zr7    O163      1.75053      .   S
    N158   O164      2.50089      .   S
    Zr10   O164      1.90131      .   S
    N165   O166      2.77534      .   S
    Zr24   O166      1.73989      .   S
    N165   O167      2.50104  1_455   S
    Zr1    O167      1.90033  1_455   S
    N165   O168      2.84319  1_455   S
    Zr12   O168      1.75076      .   S
    N165   O169      2.77544  1_455   S
    Zr22   O169      1.74032      .   S
    N165   O170      2.84310      .   S
    Zr8    O170      1.75053      .   S
    N165   O171      2.50054      .   S
    Zr1    O171      1.90131      .   S
    N172   O173      2.50006      .   S
    Zr16   O173      1.90141  1_545   S
    N172   O174      2.84286      .   S
    Zr30   O174      1.74925      .   S
    N172   O175      2.50046      .   S
    Zr16   O175      1.90038  1_545   S
    N172   O176      2.84266      .   S
    Zr26   O176      1.74908      .   S
    N172   O177      2.77357      .   S
    Zr6    O177      1.73958      .   S
    N172   O178      2.77503      .   S
    Zr15   O178      1.73764  1_556   S
    N179   O180      2.77469  1_455   S
    Zr15   O180      1.73894      .   S
    N179   O181      2.50086      .   S
    Zr25   O181      1.90087      .   S
    N179   O182      2.84297      .   S
    Zr19   O182      1.75042      .   S
    N179   O183      2.77426      .   S
    Zr2    O183      1.73887  1_554   S
    N179   O184      2.84280      .   S
    Zr23   O184      1.75045  1_655   S
    N179   O185      2.50035      .   S
    Zr25   O185      1.90191      .   S
    N186   O187      2.84315      .   S
    Zr3    O187      1.75068  1_455   S
    N186   O188      2.50086      .   S
    Zr14   O188      1.90128      .   S
    N186   O189      2.84299      .   S
    Zr7    O189      1.75049      .   S
    N186   O190      2.50069      .   S
    Zr14   O190      1.90203      .   S
    N186   O191      2.77517      .   S
    Zr29   O191      1.74000      .   S
    N186   O192      2.77511      .   S
    Zr23   O192      1.73911      .   S
    N193   O194      2.77549  1_455   S
    Zr14   O194      1.73950      .   S
    N193   O195      2.84287      .   S
    Zr22   O195      1.75065  1_655   S
    N193   O196      2.50070      .   S
    Zr24   O196      1.90252      .   S
    N193   O197      2.77500      .   S
    Zr3    O197      1.74031      .   S
    N193   O198      2.84318      .   S
    Zr18   O198      1.75070      .   S
    N193   O199      2.50123      .   S
    Zr24   O199      1.90093      .   S
    N200   O201      2.50075      .   S
    Zr8    O201      1.90110      .   S
    N200   O202      2.84301      .   S
    Zr1    O202      1.75077      .   S
    N200   O203      2.77436      .   S
    Zr27   O203      1.73950  1_565   S
    N200   O204      2.50052      .   S
    Zr8    O204      1.90202      .   S
    N200   O205      2.84315      .   S
    Zr5    O205      1.75024      .   S
    N200   O206      2.77493      .   S
    Zr17   O206      1.73883      .   S
    N207   O208      2.77430      .   S
    Zr11   O208      1.73959      .   S
    N207   O209      2.50092      .   S
    Zr29   O209      1.90092      .   S
    N207   O210      2.84297      .   S
    Zr23   O210      1.75041      .   S
    N207   O211      2.77419      .   S
    Zr6    O211      1.73903  1_554   S
    N207   O212      2.50040      .   S
    Zr29   O212      1.90195      .   S
    N207   O213      2.84279      .   S
    Zr19   O213      1.75034      .   S
    N214   O215      2.77394      .   S
    Zr7    O215      1.73993      .   S
    N214   O216      2.84283      .   S
    Zr27   O216      1.74974      .   S
    N214   O217      2.50092      .   S
    Zr17   O217      1.89935  1_545   S
    N214   O218      2.84318      .   S
    Zr31   O218      1.74959      .   S
    N214   O219      2.49980      .   S
    Zr17   O219      1.90282  1_545   S
    N214   O220      2.77551      .   S
    Zr14   O220      1.73862      .   S
    N221   O222      2.50064      .   S
    Zr7    O222      1.90231      .   S
    N221   O223      2.84310      .   S
    Zr14   O223      1.75030      .   S
    N221   O224      2.77441      .   S
    Zr30   O224      1.73865      .   S
    N221   O225      2.77433      .   S
    Zr16   O225      1.73900  1_545   S
    N221   O226      2.50101      .   S
    Zr7    O226      1.90121      .   S
    N221   O227      2.84315      .   S
    Zr10   O227      1.75057      .   S
    N228   O229      2.84320      .   S
    Zr22   O229      1.75071      .   S
    N228   O230      2.50125      .   S
    Zr28   O230      1.90092      .   S
    N228   O231      2.77449      .   S
    Zr7    O231      1.74076      .   S
    N228   O232      2.77535      .   S
    Zr10   O232      1.73947      .   S
    N228   O233      2.84285      .   S
    Zr18   O233      1.75045      .   S
    N228   O234      2.50075      .   S
    Zr28   O234      1.90251      .   S
    N235   O236      2.84308      .   S
    Zr11   O236      1.74947      .   S
    N235   O237      2.49997      .   S
    Zr6    O237      1.90086  1_554   S
    N235   O238      2.77432      .   S
    Zr31   O238      1.73861      .   S
    N235   O239      2.84272      .   S
    Zr15   O239      1.74880      .   S
    N235   O240      2.50008      .   S
    Zr6    O240      1.90075  1_554   S
    N235   O241      2.77432      .   S
    Zr17   O241      1.73854  1_545   S
    N242   O243      2.84332  1_455   S
    Zr15   O243      1.74950      .   S
    N242   O244      2.50022  1_455   S
    Zr2    O244      1.90069  1_454   S
    N242   O245      2.77498  1_455   S
    Zr21   O245      1.73800  1_545   S
    N242   O246      2.77379      .   S
    Zr27   O246      1.73949      .   S
    N242   O247      2.84233      .   S
    Zr11   O247      1.74920      .   S
    N242   O248      2.49965      .   S
    Zr2    O248      1.90098  1_554   S
    N249   O250      2.77315  1_455   S
    Zr23   O250      1.73877      .   S
    N249   O251      2.84482  1_455   S
    Zr13   O251      1.74924      .   S
    N249   O252      2.50151  1_455   S
    Zr0    O252      1.90430  1_454   S
    N249   O253      2.50393      .   S
    Zr0    O253      1.89883  1_554   S
    N249   O254      2.84537      .   S
    Zr9    O254      1.75007      .   S
    N249   O255      2.77221      .   S
    Zr25   O255      1.73997      .   S
