# CIF file generated by openbabel 2.4.90, see http://openbabel.sf.net
data_I
_chemical_name_common ''
_cell_length_a 14.678
_cell_length_b 21.376
_cell_length_c 21.376
_cell_angle_alpha 83.236
_cell_angle_beta 69.927
_cell_angle_gamma 69.929
_space_group_name_H-M_alt 'P 1'
_space_group_name_Hall 'P 1'
loop_
    _symmetry_equiv_pos_as_xyz
    x,y,z
loop_
    _atom_site_label
    _atom_site_type_symbol
    _atom_site_fract_x
    _atom_site_fract_y
    _atom_site_fract_z
    _atom_site_occupancy
    N0      N    0.04963   0.88786   0.13778   1.000
    N1      N    0.06233   0.86255   0.38775   1.000
    N2      N    0.04972   0.88764   0.63787   1.000
    N3      N    0.56269   0.36213   0.88755   1.000
    N4      N    0.56263   0.36200   0.38765   1.000
    N5      N    0.04995   0.38768   0.13767   1.000
    N6      N    0.81254   0.13757   0.61229   1.000
    N7      N    0.07520   0.11236   0.36212   1.000
    N8      N    0.81271   0.13769   0.11199   1.000
    N9      N    0.31260   0.63770   0.11216   1.000
    N10     N    0.31272   0.13768   0.11196   1.000
    N11     N    0.07528   0.11195   0.86245   1.000
    N12     N    0.54995   0.38767   0.13767   1.000
    N13     N    0.81259   0.63770   0.11216   1.000
    N14     N    0.57519   0.11236   0.36212   1.000
    N15     N    0.57528   0.11195   0.86245   1.000
    N16     N    0.04971   0.38774   0.63797   1.000
    N17     N    0.54970   0.38774   0.63797   1.000
    N18     N    0.31218   0.63810   0.61234   1.000
    N19     N    0.06264   0.36201   0.38771   1.000
    N20     N    0.54963   0.88786   0.13779   1.000
    N21     N    0.07517   0.61224   0.86249   1.000
    N22     N    0.81217   0.63810   0.61233   1.000
    N23     N    0.07538   0.61236   0.36194   1.000
    N24     N    0.31255   0.13757   0.61228   1.000
    N25     N    0.57517   0.61224   0.86248   1.000
    N26     N    0.54972   0.88765   0.63788   1.000
    N27     N    0.56232   0.86255   0.38775   1.000
    N28     N    0.57537   0.61236   0.36194   1.000
    N29     N    0.56252   0.86232   0.88799   1.000
    N30     N    0.06253   0.86232   0.88799   1.000
    N31     N    0.06269   0.36213   0.88740   1.000
    Zr32    Zr   0.56241   0.73112   0.51888   1.000
    O33     O    0.61881   0.71693   0.52934   1.000
    O34     O    0.50598   0.72070   0.53310   1.000
    O35     O    0.60349   0.75588   0.49044   1.000
    O36     O    0.53782   0.76470   0.54594   1.000
    O37     O    0.52132   0.75960   0.49419   1.000
    O38     O    0.58698   0.70405   0.48529   1.000
    Zr39    Zr   0.91846   0.01921   0.26888   1.000
    O40     O    0.91622   0.04605   0.23514   1.000
    O41     O    0.90579   0.99084   0.24412   1.000
    O42     O    0.96073   0.03331   0.27934   1.000
    O43     O    0.98428   0.99434   0.24058   1.000
    O44     O    0.85162   0.02976   0.28299   1.000
    O45     O    0.92740   0.98572   0.29601   1.000
    Zr46    Zr   0.06242   0.73112   0.51888   1.000
    O47     O    0.03783   0.76471   0.54592   1.000
    O48     O    0.02133   0.75960   0.49418   1.000
    O49     O    0.11882   0.71693   0.52934   1.000
    O50     O    0.00598   0.72070   0.53310   1.000
    O51     O    0.10350   0.75588   0.49044   1.000
    O52     O    0.08699   0.70404   0.48530   1.000
    Zr53    Zr   0.31250   0.76908   0.98115   1.000
    O54     O    0.27504   0.74068   0.00590   1.000
    O55     O    0.36524   0.78318   0.97059   1.000
    O56     O    0.25972   0.77966   0.96711   1.000
    O57     O    0.27644   0.79595   0.01483   1.000
    O58     O    0.34854   0.73548   0.95413   1.000
    O59     O    0.34989   0.74432   0.00950   1.000
    Zr60    Zr   0.31251   0.26890   0.48108   1.000
    O61     O    0.34991   0.24413   0.50950   1.000
    O62     O    0.25986   0.27934   0.46687   1.000
    O63     O    0.34851   0.23530   0.45404   1.000
    O64     O    0.27640   0.29594   0.51467   1.000
    O65     O    0.27518   0.24044   0.50578   1.000
    O66     O    0.36520   0.28308   0.47063   1.000
    Zr67    Zr   0.41860   0.51891   0.26893   1.000
    O68     O    0.41618   0.54589   0.23529   1.000
    O69     O    0.46082   0.53318   0.27930   1.000
    O70     O    0.48439   0.49418   0.24053   1.000
    O71     O    0.40599   0.49048   0.24418   1.000
    O72     O    0.42765   0.48533   0.29599   1.000
    O73     O    0.35173   0.52940   0.28309   1.000
    Zr74    Zr   0.31249   0.76913   0.48082   1.000
    O75     O    0.36512   0.78336   0.47040   1.000
    O76     O    0.27511   0.74069   0.50556   1.000
    O77     O    0.25980   0.77963   0.46666   1.000
    O78     O    0.34865   0.73563   0.45370   1.000
    O79     O    0.27641   0.79597   0.51454   1.000
    O80     O    0.34978   0.74445   0.50931   1.000
    Zr81    Zr   0.81249   0.76908   0.98115   1.000
    O82     O    0.84853   0.73548   0.95416   1.000
    O83     O    0.77643   0.79595   0.01481   1.000
    O84     O    0.84987   0.74432   0.00950   1.000
    O85     O    0.77503   0.74068   0.00590   1.000
    O86     O    0.75971   0.77966   0.96712   1.000
    O87     O    0.86523   0.78318   0.97060   1.000
    Zr88    Zr   0.70647   0.48111   0.73109   1.000
    O89     O    0.77332   0.46694   0.72060   1.000
    O90     O    0.66424   0.47066   0.71690   1.000
    O91     O    0.64065   0.50953   0.75585   1.000
    O92     O    0.70895   0.51471   0.70406   1.000
    O93     O    0.71908   0.50579   0.75958   1.000
    O94     O    0.69750   0.45406   0.76469   1.000
    Zr95    Zr   0.81248   0.76913   0.48082   1.000
    O96     O    0.75978   0.77963   0.46666   1.000
    O97     O    0.84977   0.74446   0.50931   1.000
    O98     O    0.77510   0.74069   0.50556   1.000
    O99     O    0.77640   0.79598   0.51453   1.000
    O100    O    0.84864   0.73563   0.45369   1.000
    O101    O    0.86512   0.78336   0.47039   1.000
    Zr102   Zr   0.81252   0.26893   0.98088   1.000
    O103    O    0.85000   0.24417   0.00920   1.000
    O104    O    0.77507   0.24059   0.00568   1.000
    O105    O    0.77654   0.29595   0.01450   1.000
    O106    O    0.86525   0.28304   0.97024   1.000
    O107    O    0.75977   0.27942   0.96678   1.000
    O108    O    0.84855   0.23517   0.95406   1.000
    Zr109   Zr   0.56254   0.23096   0.01890   1.000
    O110    O    0.60354   0.25569   0.99054   1.000
    O111    O    0.53808   0.26455   0.04588   1.000
    O112    O    0.61884   0.21686   0.02944   1.000
    O113    O    0.52152   0.25931   0.99400   1.000
    O114    O    0.50626   0.22044   0.03298   1.000
    O115    O    0.58709   0.20395   0.98534   1.000
    Zr116   Zr   0.70658   0.98085   0.73112   1.000
    O117    O    0.70906   0.01441   0.70406   1.000
    O118    O    0.71923   0.00564   0.75950   1.000
    O119    O    0.77342   0.96675   0.72061   1.000
    O120    O    0.66442   0.97028   0.71700   1.000
    O121    O    0.64079   0.00914   0.75593   1.000
    O122    O    0.69749   0.95399   0.76482   1.000
    Zr123   Zr   0.06250   0.23090   0.51910   1.000
    O124    O    0.11892   0.21670   0.52954   1.000
    O125    O    0.10360   0.25560   0.49063   1.000
    O126    O    0.02144   0.25934   0.49440   1.000
    O127    O    0.00615   0.22039   0.53327   1.000
    O128    O    0.08694   0.20402   0.48544   1.000
    O129    O    0.03798   0.26442   0.54626   1.000
    Zr130   Zr   0.06255   0.23096   0.01889   1.000
    O131    O    0.00627   0.22044   0.03296   1.000
    O132    O    0.02152   0.25931   0.99400   1.000
    O133    O    0.11885   0.21686   0.02943   1.000
    O134    O    0.03809   0.26455   0.04587   1.000
    O135    O    0.08710   0.20395   0.98533   1.000
    O136    O    0.10354   0.25569   0.99054   1.000
    Zr137   Zr   0.20659   0.98084   0.73112   1.000
    O138    O    0.27343   0.96675   0.72061   1.000
    O139    O    0.21924   0.00564   0.75950   1.000
    O140    O    0.14080   0.00913   0.75593   1.000
    O141    O    0.16443   0.97028   0.71700   1.000
    O142    O    0.20907   0.01441   0.70406   1.000
    O143    O    0.19749   0.95398   0.76485   1.000
    Zr144   Zr   0.91834   0.51922   0.76907   1.000
    O145    O    0.90574   0.49076   0.74434   1.000
    O146    O    0.85150   0.52961   0.78331   1.000
    O147    O    0.98416   0.49448   0.74063   1.000
    O148    O    0.96057   0.53335   0.77959   1.000
    O149    O    0.91561   0.54641   0.73563   1.000
    O150    O    0.92765   0.48549   0.79589   1.000
    Zr151   Zr   0.56240   0.73109   0.01916   1.000
    O152    O    0.50607   0.72058   0.03326   1.000
    O153    O    0.61872   0.71693   0.02965   1.000
    O154    O    0.52142   0.75944   0.99435   1.000
    O155    O    0.60340   0.75591   0.99088   1.000
    O156    O    0.53775   0.76482   0.04603   1.000
    O157    O    0.58695   0.70401   0.98562   1.000
    Zr158   Zr   0.06240   0.73109   0.01916   1.000
    O159    O    0.11873   0.71693   0.02966   1.000
    O160    O    0.10341   0.75591   0.99086   1.000
    O161    O    0.03775   0.76482   0.04603   1.000
    O162    O    0.02142   0.75944   0.99436   1.000
    O163    O    0.00607   0.72058   0.03326   1.000
    O164    O    0.08695   0.70401   0.98563   1.000
    Zr165   Zr   0.91859   0.51891   0.26892   1.000
    O166    O    0.85173   0.52939   0.28308   1.000
    O167    O    0.91617   0.54589   0.23529   1.000
    O168    O    0.98439   0.49418   0.24053   1.000
    O169    O    0.96082   0.53318   0.27929   1.000
    O170    O    0.92764   0.48533   0.29598   1.000
    O171    O    0.90599   0.49048   0.24417   1.000
    Zr172   Zr   0.31253   0.26893   0.98088   1.000
    O173    O    0.27508   0.24059   0.00568   1.000
    O174    O    0.36526   0.28304   0.97024   1.000
    O175    O    0.35000   0.24417   0.00921   1.000
    O176    O    0.27654   0.29595   0.01449   1.000
    O177    O    0.34856   0.23517   0.95405   1.000
    O178    O    0.25978   0.27942   0.96678   1.000
    Zr179   Zr   0.41851   0.01887   0.76912   1.000
    O180    O    0.40588   0.99051   0.74436   1.000
    O181    O    0.35169   0.02941   0.78325   1.000
    O182    O    0.41601   0.04586   0.73553   1.000
    O183    O    0.46075   0.03290   0.77968   1.000
    O184    O    0.48438   0.99405   0.74075   1.000
    O185    O    0.42768   0.98521   0.79602   1.000
    Zr186   Zr   0.20672   0.48084   0.23088   1.000
    O187    O    0.19769   0.45371   0.26440   1.000
    O188    O    0.14090   0.50938   0.25551   1.000
    O189    O    0.21931   0.50560   0.25931   1.000
    O190    O    0.20921   0.51443   0.20387   1.000
    O191    O    0.27357   0.46668   0.22040   1.000
    O192    O    0.16447   0.47039   0.21675   1.000
    Zr193   Zr   0.41846   0.01921   0.26888   1.000
    O194    O    0.46073   0.03331   0.27934   1.000
    O195    O    0.48428   0.99434   0.24058   1.000
    O196    O    0.35163   0.02977   0.28299   1.000
    O197    O    0.42741   0.98572   0.29602   1.000
    O198    O    0.40580   0.99084   0.24412   1.000
    O199    O    0.41622   0.04605   0.23514   1.000
    Zr200   Zr   0.20647   0.48111   0.73110   1.000
    O201    O    0.16424   0.47066   0.71690   1.000
    O202    O    0.21908   0.50579   0.75958   1.000
    O203    O    0.14065   0.50953   0.75585   1.000
    O204    O    0.27332   0.46694   0.72061   1.000
    O205    O    0.19750   0.45407   0.76470   1.000
    O206    O    0.20896   0.51471   0.70406   1.000
    Zr207   Zr   0.20653   0.98111   0.23089   1.000
    O208    O    0.21917   0.00595   0.25924   1.000
    O209    O    0.27334   0.96703   0.22038   1.000
    O210    O    0.20901   0.01468   0.20388   1.000
    O211    O    0.14078   0.00950   0.25560   1.000
    O212    O    0.16432   0.97053   0.21684   1.000
    O213    O    0.19741   0.95416   0.26451   1.000
    Zr214   Zr   0.70652   0.98111   0.23089   1.000
    O215    O    0.69740   0.95416   0.26451   1.000
    O216    O    0.64077   0.00950   0.25560   1.000
    O217    O    0.70900   0.01469   0.20389   1.000
    O218    O    0.66431   0.97053   0.21684   1.000
    O219    O    0.71916   0.00595   0.25925   1.000
    O220    O    0.77333   0.96703   0.22038   1.000
    Zr221   Zr   0.81251   0.26890   0.48108   1.000
    O222    O    0.86519   0.28308   0.47064   1.000
    O223    O    0.77517   0.24045   0.50579   1.000
    O224    O    0.84850   0.23530   0.45404   1.000
    O225    O    0.84990   0.24414   0.50950   1.000
    O226    O    0.77639   0.29594   0.51467   1.000
    O227    O    0.75986   0.27934   0.46687   1.000
    Zr228   Zr   0.56249   0.23090   0.51917   1.000
    O229    O    0.50614   0.22039   0.53331   1.000
    O230    O    0.61891   0.21670   0.52959   1.000
    O231    O    0.60359   0.25559   0.49068   1.000
    O232    O    0.53797   0.26442   0.54631   1.000
    O233    O    0.52143   0.25934   0.49443   1.000
    O234    O    0.58693   0.20402   0.48548   1.000
    Zr235   Zr   0.70672   0.48084   0.23088   1.000
    O236    O    0.71930   0.50560   0.25931   1.000
    O237    O    0.66446   0.47039   0.21675   1.000
    O238    O    0.64089   0.50938   0.25551   1.000
    O239    O    0.69768   0.45371   0.26438   1.000
    O240    O    0.70920   0.51443   0.20387   1.000
    O241    O    0.77356   0.46668   0.22040   1.000
    Zr242   Zr   0.41835   0.51922   0.76907   1.000
    O243    O    0.46058   0.53335   0.77959   1.000
    O244    O    0.40575   0.49076   0.74434   1.000
    O245    O    0.41561   0.54641   0.73563   1.000
    O246    O    0.35150   0.52961   0.78332   1.000
    O247    O    0.42765   0.48550   0.79589   1.000
    O248    O    0.48416   0.49448   0.74063   1.000
    Zr249   Zr   0.91851   0.01886   0.76912   1.000
    O250    O    0.85168   0.02940   0.78325   1.000
    O251    O    0.91601   0.04586   0.73553   1.000
    O252    O    0.96075   0.03290   0.77968   1.000
    O253    O    0.90587   0.99051   0.74436   1.000
    O254    O    0.98438   0.99404   0.74075   1.000
    O255    O    0.92768   0.98520   0.79600   1.000
loop_
    _geom_bond_atom_site_label_1
    _geom_bond_atom_site_label_2
    _geom_bond_distance
    _geom_bond_site_symmetry_2
    _ccdc_geom_bond_type
    Zr32   O33       0.87525      .   S
    N22    O33       3.67576      .   S
    Zr32   O34       0.87527      .   S
    N18    O34       3.67609      .   S
    Zr32   O35       0.95115      .   S
    N27    O35       3.02807      .   S
    Zr32   O36       0.86996      .   S
    N26    O36       3.54486      .   S
    Zr32   O37       0.95061      .   S
    N27    O37       3.02839      .   S
    Zr32   O38       0.87038      .   S
    N28    O38       3.54647      .   S
    Zr39   O40       0.86962      .   S
    N8     O40       3.54446      .   S
    Zr39   O41       0.95015  1_545   S
    N0     O41       3.02736  1_455   S
    Zr39   O42       0.87490      .   S
    N7     O42       3.67454  1_455   S
    Zr39   O43       0.95075  1_545   S
    N0     O43       3.02696  1_455   S
    Zr39   O44       0.87476      .   S
    N14    O44       3.67649      .   S
    Zr39   O45       0.86950  1_545   S
    N1     O45       3.54560  1_455   S
    Zr46   O47       0.86978      .   S
    N2     O47       3.54495      .   S
    Zr46   O48       0.95085      .   S
    N1     O48       3.02813      .   S
    Zr46   O49       0.87524      .   S
    N18    O49       3.67579      .   S
    Zr46   O50       0.87534      .   S
    N22    O50       3.67614  1_655   S
    Zr46   O51       0.95116      .   S
    N1     O51       3.02795      .   S
    Zr46   O52       0.87015      .   S
    N23    O52       3.54675      .   S
    Zr53   O54       0.95115  1_556   S
    N9     O54       3.02622      .   S
    Zr53   O55       0.87474      .   S
    N29    O55       3.67606      .   S
    Zr53   O56       0.87460      .   S
    N30    O56       3.67494      .   S
    Zr53   O57       0.86922  1_556   S
    N0     O57       3.54558      .   S
    Zr53   O58       0.86979      .   S
    N25    O58       3.54541      .   S
    Zr53   O59       0.94963  1_556   S
    N9     O59       3.02708      .   S
    Zr60   O61       0.95101      .   S
    N24    O61       3.02781      .   S
    Zr60   O62       0.87527      .   S
    N19    O62       3.67606      .   S
    Zr60   O63       0.86997      .   S
    N14    O63       3.54465      .   S
    Zr60   O64       0.87002      .   S
    N16    O64       3.54753      .   S
    Zr60   O65       0.95055      .   S
    N24    O65       3.02806      .   S
    Zr60   O66       0.87535      .   S
    N4     O66       3.67593      .   S
    Zr67   O68       0.86984      .   S
    N9     O68       3.54574      .   S
    Zr67   O69       0.87522      .   S
    N28    O69       3.67548      .   S
    Zr67   O70       0.95040      .   S
    N12    O70       3.02774      .   S
    Zr67   O71       0.95063      .   S
    N12    O71       3.02770      .   S
    Zr67   O72       0.87015      .   S
    N4     O72       3.54640      .   S
    Zr67   O73       0.87535      .   S
    N23    O73       3.67605      .   S
    Zr74   O75       0.87529      .   S
    N27    O75       3.67601      .   S
    Zr74   O76       0.95100      .   S
    N18    O76       3.02809      .   S
    Zr74   O77       0.87512      .   S
    N1     O77       3.67586      .   S
    Zr74   O78       0.86973      .   S
    N28    O78       3.54729      .   S
    Zr74   O79       0.86952      .   S
    N2     O79       3.54700      .   S
    Zr74   O80       0.95065      .   S
    N18    O80       3.02826      .   S
    Zr81   O82       0.86947      .   S
    N21    O82       3.54568  1_455   S
    Zr81   O83       0.86882  1_556   S
    N20    O83       3.54582      .   S
    Zr81   O84       0.94962  1_556   S
    N13    O84       3.02704      .   S
    Zr81   O85       0.95113  1_556   S
    N13    O85       3.02619      .   S
    Zr81   O86       0.87440      .   S
    N29    O86       3.67512      .   S
    Zr81   O87       0.87475      .   S
    N30    O87       3.67626  1_455   S
    Zr88   O89       0.87515      .   S
    N16    O89       3.67641  1_455   S
    Zr88   O90       0.87531      .   S
    N17    O90       3.67574      .   S
    Zr88   O91       0.95097      .   S
    N25    O91       3.02779      .   S
    Zr88   O92       0.87000      .   S
    N22    O92       3.54716      .   S
    Zr88   O93       0.95046      .   S
    N25    O93       3.02816      .   S
    Zr88   O94       0.87004      .   S
    N3     O94       3.54412      .   S
    Zr95   O96       0.87515      .   S
    N27    O96       3.67599      .   S
    Zr95   O97       0.95064      .   S
    N22    O97       3.02823      .   S
    Zr95   O98       0.95102      .   S
    N22    O98       3.02804      .   S
    Zr95   O99       0.86931      .   S
    N26    O99       3.54718      .   S
    Zr95   O100      0.86975      .   S
    N23    O100      3.54741  1_455   S
    Zr95   O101      0.87526      .   S
    N1     O101      3.67611  1_455   S
    Zr102  O103      0.94998  1_556   S
    N8     O103      3.02645      .   S
    Zr102  O104      0.95028  1_556   S
    N8     O104      3.02625      .   S
    Zr102  O105      0.86995  1_556   S
    N12    O105      3.54504      .   S
    Zr102  O106      0.87462      .   S
    N31    O106      3.67800  1_455   S
    Zr102  O107      0.87502      .   S
    N3     O107      3.67558      .   S
    Zr102  O108      0.86980      .   S
    N11    O108      3.54581  1_455   S
    Zr109  O110      0.94945  1_554   S
    N3     O110      3.02867      .   S
    Zr109  O111      0.86925      .   S
    N12    O111      3.54583      .   S
    Zr109  O112      0.87473      .   S
    N8     O112      3.67611      .   S
    Zr109  O113      0.95214  1_554   S
    N3     O113      3.02715      .   S
    Zr109  O114      0.87442      .   S
    N10    O114      3.67463      .   S
    Zr109  O115      0.86908  1_554   S
    N15    O115      3.54420      .   S
    Zr116  O117      0.86973  1_565   S
    N6     O117      3.54535      .   S
    Zr116  O118      0.95075  1_565   S
    N15    O118      3.02688      .   S
    Zr116  O119      0.87486      .   S
    N2     O119      3.67548  1_455   S
    Zr116  O120      0.87479      .   S
    N26    O120      3.67628      .   S
    Zr116  O121      0.95011  1_565   S
    N15    O121      3.02723      .   S
    Zr116  O122      0.86931      .   S
    N29    O122      3.54467      .   S
    Zr123  O124      0.87538      .   S
    N24    O124      3.67597      .   S
    Zr123  O125      0.95066      .   S
    N19    O125      3.02763      .   S
    Zr123  O126      0.95017      .   S
    N19    O126      3.02799      .   S
    Zr123  O127      0.87519      .   S
    N6     O127      3.67640  1_655   S
    Zr123  O128      0.86919      .   S
    N7     O128      3.54656      .   S
    Zr123  O129      0.87025      .   S
    N16    O129      3.54718      .   S
    Zr130  O131      0.87449      .   S
    N8     O131      3.67489  1_655   S
    Zr130  O132      0.95215  1_554   S
    N31    O132      3.02905      .   S
    Zr130  O133      0.87476      .   S
    N10    O133      3.67575      .   S
    Zr130  O134      0.86928      .   S
    N5     O134      3.54587      .   S
    Zr130  O135      0.86901  1_554   S
    N11    O135      3.54419      .   S
    Zr130  O136      0.94941  1_554   S
    N31    O136      3.03091      .   S
    Zr137  O138      0.87487      .   S
    N26    O138      3.67532      .   S
    Zr137  O139      0.95077  1_565   S
    N11    O139      3.02687      .   S
    Zr137  O140      0.95012  1_565   S
    N11    O140      3.02722      .   S
    Zr137  O141      0.87480      .   S
    N2     O141      3.67639      .   S
    Zr137  O142      0.86975  1_565   S
    N24    O142      3.54541      .   S
    Zr137  O143      0.86974      .   S
    N30    O143      3.54433      .   S
    Zr144  O145      0.95075      .   S
    N16    O145      3.02861  1_455   S
    Zr144  O146      0.87520      .   S
    N25    O146      3.67567      .   S
    Zr144  O147      0.95102      .   S
    N16    O147      3.02848  1_455   S
    Zr144  O148      0.87522      .   S
    N21    O148      3.67571  1_455   S
    Zr144  O149      0.86955      .   S
    N22    O149      3.54689      .   S
    Zr144  O150      0.86938      .   S
    N31    O150      3.54513  1_455   S
    Zr151  O152      0.87489      .   S
    N9     O152      3.67536      .   S
    Zr151  O153      0.87456      .   S
    N13    O153      3.67563      .   S
    Zr151  O154      0.95043  1_554   S
    N29    O154      3.02664      .   S
    Zr151  O155      0.95038  1_554   S
    N29    O155      3.02670      .   S
    Zr151  O156      0.86979      .   S
    N20    O156      3.54393      .   S
    Zr151  O157      0.86951  1_554   S
    N25    O157      3.54512      .   S
    Zr158  O159      0.87461      .   S
    N9     O159      3.67572      .   S
    Zr158  O160      0.95049  1_554   S
    N30    O160      3.02649      .   S
    Zr158  O161      0.86981      .   S
    N0     O161      3.54391      .   S
    Zr158  O162      0.95035  1_554   S
    N30    O162      3.02677      .   S
    Zr158  O163      0.87496      .   S
    N13    O163      3.67545  1_655   S
    Zr158  O164      0.86943  1_554   S
    N21    O164      3.54513      .   S
    Zr165  O166      0.87535      .   S
    N28    O166      3.67608      .   S
    Zr165  O167      0.86979      .   S
    N13    O167      3.54576      .   S
    Zr165  O168      0.95042      .   S
    N5     O168      3.02766  1_455   S
    Zr165  O169      0.87533      .   S
    N23    O169      3.67562  1_455   S
    Zr165  O170      0.87016      .   S
    N19    O170      3.54738  1_455   S
    Zr165  O171      0.95061      .   S
    N5     O171      3.02763  1_455   S
    Zr172  O173      0.95029  1_556   S
    N10    O173      3.02582      .   S
    Zr172  O174      0.87463      .   S
    N3     O174      3.67732      .   S
    Zr172  O175      0.95020  1_556   S
    N10    O175      3.02596      .   S
    Zr172  O176      0.86988  1_556   S
    N5     O176      3.54509      .   S
    Zr172  O177      0.86985      .   S
    N15    O177      3.54569      .   S
    Zr172  O178      0.87503      .   S
    N31    O178      3.67783      .   S
    Zr179  O180      0.94967  1_545   S
    N26    O180      3.02781      .   S
    Zr179  O181      0.87470      .   S
    N11    O181      3.67625      .   S
    Zr179  O182      0.86941      .   S
    N24    O182      3.54630      .   S
    Zr179  O183      0.87464      .   S
    N15    O183      3.67513      .   S
    Zr179  O184      0.95141  1_545   S
    N26    O184      3.02681      .   S
    Zr179  O185      0.86927  1_545   S
    N29    O185      3.54522      .   S
    Zr186  O187      0.86995      .   S
    N19    O187      3.54731      .   S
    Zr186  O188      0.95126      .   S
    N23    O188      3.02825      .   S
    Zr186  O189      0.95046      .   S
    N23    O189      3.02871      .   S
    Zr186  O190      0.86962      .   S
    N9     O190      3.54615      .   S
    Zr186  O191      0.87509      .   S
    N12    O191      3.67604      .   S
    Zr186  O192      0.87485      .   S
    N5     O192      3.67465      .   S
    Zr193  O194      0.87481      .   S
    N14    O194      3.67447      .   S
    Zr193  O195      0.95070  1_545   S
    N20    O195      3.02700      .   S
    Zr193  O196      0.87476      .   S
    N7     O196      3.67650      .   S
    Zr193  O197      0.86950  1_545   S
    N27    O197      3.54536      .   S
    Zr193  O198      0.95019  1_545   S
    N20    O198      3.02733      .   S
    Zr193  O199      0.86961      .   S
    N10    O199      3.54497      .   S
    Zr200  O201      0.87535      .   S
    N16    O201      3.67587      .   S
    Zr200  O202      0.95043      .   S
    N21    O202      3.02806      .   S
    Zr200  O203      0.95095      .   S
    N21    O203      3.02769      .   S
    Zr200  O204      0.87514      .   S
    N17    O204      3.67628      .   S
    Zr200  O205      0.86999      .   S
    N31    O205      3.54250      .   S
    Zr200  O206      0.87002      .   S
    N18    O206      3.54714      .   S
    Zr207  O208      0.95104  1_565   S
    N7     O208      3.02723      .   S
    Zr207  O209      0.87454      .   S
    N20    O209      3.67501      .   S
    Zr207  O210      0.86926  1_565   S
    N10    O210      3.54520      .   S
    Zr207  O211      0.94989  1_565   S
    N7     O211      3.02781      .   S
    Zr207  O212      0.87464      .   S
    N0     O212      3.67568      .   S
    Zr207  O213      0.86931      .   S
    N1     O213      3.54549      .   S
    Zr214  O215      0.86932      .   S
    N27    O215      3.54539      .   S
    Zr214  O216      0.94987  1_565   S
    N14    O216      3.02784      .   S
    Zr214  O217      0.86924  1_565   S
    N8     O217      3.54505      .   S
    Zr214  O218      0.87462      .   S
    N20    O218      3.67561      .   S
    Zr214  O219      0.95114  1_565   S
    N14    O219      3.02717      .   S
    Zr214  O220      0.87455      .   S
    N0     O220      3.67516  1_455   S
    Zr221  O222      0.87538      .   S
    N19    O222      3.67593  1_455   S
    Zr221  O223      0.95054      .   S
    N6     O223      3.02814      .   S
    Zr221  O224      0.86996      .   S
    N7     O224      3.54475  1_455   S
    Zr221  O225      0.95102      .   S
    N6     O225      3.02790      .   S
    Zr221  O226      0.87003      .   S
    N17    O226      3.54756      .   S
    Zr221  O227      0.87525      .   S
    N4     O227      3.67683      .   S
    Zr228  O229      0.87512      .   S
    N24    O229      3.67613      .   S
    Zr228  O230      0.87512      .   S
    N6     O230      3.67541      .   S
    Zr228  O231      0.95085      .   S
    N4     O231      3.02913      .   S
    Zr228  O232      0.86991      .   S
    N17    O232      3.54664      .   S
    Zr228  O233      0.95066      .   S
    N4     O233      3.02911      .   S
    Zr228  O234      0.86958      .   S
    N14    O234      3.54731      .   S
    Zr235  O236      0.95046      .   S
    N28    O236      3.02875      .   S
    Zr235  O237      0.87486      .   S
    N12    O237      3.67456      .   S
    Zr235  O238      0.95125      .   S
    N28    O238      3.02829      .   S
    Zr235  O239      0.86965      .   S
    N4     O239      3.54694      .   S
    Zr235  O240      0.86963      .   S
    N13    O240      3.54617      .   S
    Zr235  O241      0.87508      .   S
    N5     O241      3.67614  1_455   S
    Zr242  O243      0.87517      .   S
    N25    O243      3.67565      .   S
    Zr242  O244      0.95070      .   S
    N17    O244      3.02856      .   S
    Zr242  O245      0.86956      .   S
    N18    O245      3.54679      .   S
    Zr242  O246      0.87521      .   S
    N21    O246      3.67569      .   S
    Zr242  O247      0.86939      .   S
    N3     O247      3.54722      .   S
    Zr242  O248      0.95097      .   S
    N17    O248      3.02845      .   S
    Zr249  O250      0.87470      .   S
    N15    O250      3.67626      .   S
    Zr249  O251      0.86942      .   S
    N6     O251      3.54620      .   S
    Zr249  O252      0.87471      .   S
    N11    O252      3.67521  1_455   S
    Zr249  O253      0.94967  1_545   S
    N2     O253      3.02791  1_455   S
    Zr249  O254      0.95145  1_545   S
    N2     O254      3.02685  1_455   S
    Zr249  O255      0.86900  1_545   S
    N30    O255      3.54557  1_455   S
