# CIF file generated by openbabel 2.4.90, see http://openbabel.sf.net
data_I
_chemical_name_common ''
_cell_length_a 14.678
_cell_length_b 21.376
_cell_length_c 21.376
_cell_angle_alpha 83.236
_cell_angle_beta 69.927
_cell_angle_gamma 69.929
_space_group_name_H-M_alt 'P 1'
_space_group_name_Hall 'P 1'
loop_
    _symmetry_equiv_pos_as_xyz
    x,y,z
loop_
    _atom_site_label
    _atom_site_type_symbol
    _atom_site_fract_x
    _atom_site_fract_y
    _atom_site_fract_z
    _atom_site_occupancy
    C0      C    0.06255   0.23096   0.01889   1.000
    C1      C    0.06250   0.23090   0.51910   1.000
    C2      C    0.06240   0.73109   0.01916   1.000
    C3      C    0.06242   0.73112   0.51888   1.000
    C4      C    0.56254   0.23096   0.01890   1.000
    C5      C    0.56249   0.23090   0.51917   1.000
    C6      C    0.56240   0.73109   0.01916   1.000
    C7      C    0.56241   0.73112   0.51888   1.000
    C8      C    0.31251   0.26890   0.48108   1.000
    C9      C    0.31253   0.26893   0.98088   1.000
    C10     C    0.31249   0.76913   0.48082   1.000
    C11     C    0.31250   0.76908   0.98115   1.000
    C12     C    0.81251   0.26890   0.48108   1.000
    C13     C    0.81252   0.26893   0.98088   1.000
    C14     C    0.81248   0.76913   0.48082   1.000
    C15     C    0.81249   0.76908   0.98115   1.000
    C16     C    0.41846   0.01921   0.26888   1.000
    C17     C    0.41851   0.01887   0.76912   1.000
    C18     C    0.41860   0.51891   0.26893   1.000
    C19     C    0.41835   0.51922   0.76907   1.000
    C20     C    0.91846   0.01921   0.26888   1.000
    C21     C    0.91851   0.01886   0.76912   1.000
    C22     C    0.91859   0.51891   0.26892   1.000
    C23     C    0.91834   0.51922   0.76907   1.000
    C24     C    0.20672   0.48084   0.23088   1.000
    C25     C    0.20647   0.48111   0.73110   1.000
    C26     C    0.20653   0.98111   0.23089   1.000
    C27     C    0.20659   0.98084   0.73112   1.000
    C28     C    0.70672   0.48084   0.23088   1.000
    C29     C    0.70647   0.48111   0.73109   1.000
    C30     C    0.70652   0.98111   0.23089   1.000
    C31     C    0.70658   0.98085   0.73112   1.000
    C32     C    0.11447   0.33333   0.41082   1.000
    C33     C    0.11435   0.33350   0.91082   1.000
    C34     C    0.11420   0.83382   0.41080   1.000
    C35     C    0.11420   0.83379   0.91127   1.000
    C36     C    0.61447   0.33332   0.41081   1.000
    C37     C    0.61437   0.33348   0.91080   1.000
    C38     C    0.61420   0.83381   0.41080   1.000
    C39     C    0.61419   0.83379   0.91127   1.000
    C40     C    0.02543   0.35768   0.11586   1.000
    C41     C    0.02518   0.35761   0.61632   1.000
    C42     C    0.02498   0.85799   0.11590   1.000
    C43     C    0.02507   0.85774   0.61606   1.000
    C44     C    0.52543   0.35766   0.11587   1.000
    C45     C    0.52516   0.35761   0.61633   1.000
    C46     C    0.52498   0.85799   0.11591   1.000
    C47     C    0.52506   0.85774   0.61606   1.000
    C48     C    0.35902   0.16632   0.08881   1.000
    C49     C    0.35882   0.16625   0.58920   1.000
    C50     C    0.35884   0.66640   0.08905   1.000
    C51     C    0.35843   0.66679   0.58922   1.000
    C52     C    0.85901   0.16632   0.08881   1.000
    C53     C    0.85881   0.16625   0.58920   1.000
    C54     C    0.85883   0.66640   0.08905   1.000
    C55     C    0.85843   0.66679   0.58920   1.000
    C56     C    0.99881   0.14226   0.38395   1.000
    C57     C    0.99890   0.14185   0.88432   1.000
    C58     C    0.99908   0.64249   0.38361   1.000
    C59     C    0.99883   0.64228   0.88425   1.000
    C60     C    0.49881   0.14225   0.38395   1.000
    C61     C    0.49889   0.14185   0.88432   1.000
    C62     C    0.49907   0.64249   0.38361   1.000
    C63     C    0.49883   0.64228   0.88425   1.000
    C64     C    0.47500   0.41078   0.16632   1.000
    C65     C    0.47476   0.41089   0.66662   1.000
    C66     C    0.47469   0.91112   0.16634   1.000
    C67     C    0.47480   0.91084   0.66653   1.000
    C68     C    0.97500   0.41077   0.16633   1.000
    C69     C    0.97476   0.41089   0.66662   1.000
    C70     C    0.97468   0.91112   0.16634   1.000
    C71     C    0.97479   0.91085   0.66650   1.000
    C72     C    0.35921   0.11581   0.14180   1.000
    C73     C    0.35884   0.11580   0.64233   1.000
    C74     C    0.35902   0.61587   0.14211   1.000
    C75     C    0.35830   0.61649   0.64250   1.000
    C76     C    0.85920   0.11582   0.14188   1.000
    C77     C    0.85883   0.11580   0.64233   1.000
    C78     C    0.85901   0.61587   0.14210   1.000
    C79     C    0.85830   0.61649   0.64250   1.000
    C80     C    0.05212   0.08920   0.33343   1.000
    C81     C    0.05215   0.08873   0.83385   1.000
    C82     C    0.05223   0.58929   0.33321   1.000
    C83     C    0.05201   0.58918   0.83378   1.000
    C84     C    0.55212   0.08920   0.33343   1.000
    C85     C    0.55214   0.08873   0.83385   1.000
    C86     C    0.55222   0.58928   0.33323   1.000
    C87     C    0.55201   0.58917   0.83378   1.000
    C88     C    0.11728   0.38367   0.35757   1.000
    C89     C    0.11727   0.38395   0.85769   1.000
    C90     C    0.11691   0.88431   0.35772   1.000
    C91     C    0.11705   0.88419   0.85810   1.000
    C92     C    0.61728   0.38367   0.35750   1.000
    C93     C    0.61726   0.38396   0.85770   1.000
    C94     C    0.61689   0.88432   0.35770   1.000
    C95     C    0.61704   0.88419   0.85810   1.000
    C96     C    0.26631   0.16089   0.08340   1.000
    C97     C    0.26633   0.16068   0.58359   1.000
    C98     C    0.26621   0.66089   0.08359   1.000
    C99     C    0.26605   0.66109   0.58354   1.000
    C100    C    0.76629   0.16089   0.08344   1.000
    C101    C    0.76631   0.16069   0.58359   1.000
    C102    C    0.76620   0.66089   0.08358   1.000
    C103    C    0.76604   0.66109   0.58354   1.000
    C104    C    0.12632   0.36591   0.10766   1.000
    C105    C    0.12604   0.36595   0.60793   1.000
    C106    C    0.12601   0.86592   0.10790   1.000
    C107    C    0.12605   0.86579   0.60787   1.000
    C108    C    0.62631   0.36592   0.10766   1.000
    C109    C    0.62603   0.36596   0.60793   1.000
    C110    C    0.62600   0.86592   0.10790   1.000
    C111    C    0.62605   0.86579   0.60788   1.000
    C112    C    0.01075   0.33896   0.41647   1.000
    C113    C    0.01087   0.33894   0.91608   1.000
    C114    C    0.01052   0.83942   0.41643   1.000
    C115    C    0.01076   0.83912   0.91656   1.000
    C116    C    0.51075   0.33897   0.41640   1.000
    C117    C    0.51085   0.33895   0.91610   1.000
    C118    C    0.51049   0.83944   0.41644   1.000
    C119    C    0.51075   0.83913   0.91656   1.000
    C120    C    0.09967   0.13417   0.39215   1.000
    C121    C    0.09984   0.13383   0.89237   1.000
    C122    C    0.09991   0.63406   0.39203   1.000
    C123    C    0.09973   0.63397   0.89254   1.000
    C124    C    0.59967   0.13417   0.39215   1.000
    C125    C    0.59983   0.13383   0.89237   1.000
    C126    C    0.59990   0.63404   0.39204   1.000
    C127    C    0.59973   0.63397   0.89253   1.000
    C128    C    0.07307   0.41634   0.16082   1.000
    C129    C    0.07287   0.41651   0.66099   1.000
    C130    C    0.07285   0.91641   0.16099   1.000
    C131    C    0.07298   0.91620   0.66105   1.000
    C132    C    0.57307   0.41632   0.16084   1.000
    C133    C    0.57286   0.41651   0.66099   1.000
    C134    C    0.57285   0.91641   0.16099   1.000
    C135    C    0.57297   0.91621   0.66104   1.000
    C136    C    0.00804   0.39208   0.36598   1.000
    C137    C    0.00826   0.39214   0.86500   1.000
    C138    C    0.00770   0.89264   0.36607   1.000
    C139    C    0.00810   0.89219   0.86605   1.000
    C140    C    0.50804   0.39207   0.36590   1.000
    C141    C    0.50826   0.39212   0.86560   1.000
    C142    C    0.50769   0.89264   0.36606   1.000
    C143    C    0.50809   0.89218   0.86605   1.000
    C144    C    0.15018   0.08381   0.33893   1.000
    C145    C    0.15025   0.08339   0.83924   1.000
    C146    C    0.15030   0.58360   0.33890   1.000
    C147    C    0.15010   0.58354   0.83939   1.000
    C148    C    0.65017   0.08380   0.33894   1.000
    C149    C    0.65024   0.08339   0.83925   1.000
    C150    C    0.65029   0.58361   0.33889   1.000
    C151    C    0.65010   0.58355   0.83938   1.000
    C152    C    0.26634   0.10771   0.13382   1.000
    C153    C    0.26623   0.10755   0.63400   1.000
    C154    C    0.26635   0.60764   0.13391   1.000
    C155    C    0.26592   0.60804   0.63409   1.000
    C156    C    0.76633   0.10772   0.13384   1.000
    C157    C    0.76622   0.10755   0.63404   1.000
    C158    C    0.76634   0.60764   0.13390   1.000
    C159    C    0.76592   0.60803   0.63409   1.000
    C160    C    0.17211   0.29675   0.44319   1.000
    C161    C    0.17186   0.29691   0.94328   1.000
    C162    C    0.17197   0.79713   0.44305   1.000
    C163    C    0.17175   0.79729   0.94370   1.000
    C164    C    0.67210   0.29674   0.44319   1.000
    C165    C    0.67186   0.29691   0.94328   1.000
    C166    C    0.67196   0.79714   0.44305   1.000
    C167    C    0.67174   0.79729   0.94374   1.000
    C168    C    0.99731   0.32054   0.09084   1.000
    C169    C    0.99713   0.32027   0.59153   1.000
    C170    C    0.99667   0.82104   0.09081   1.000
    C171    C    0.99684   0.82068   0.59100   1.000
    C172    C    0.49730   0.32054   0.09084   1.000
    C173    C    0.49711   0.32027   0.59153   1.000
    C174    C    0.49666   0.82104   0.09081   1.000
    C175    C    0.49683   0.82067   0.59105   1.000
    C176    C    0.41245   0.20290   0.05644   1.000
    C177    C    0.41224   0.20286   0.55688   1.000
    C178    C    0.41219   0.70306   0.05675   1.000
    C179    C    0.41192   0.70332   0.55680   1.000
    C180    C    0.91245   0.20289   0.05640   1.000
    C181    C    0.91223   0.20286   0.55688   1.000
    C182    C    0.91218   0.70306   0.05675   1.000
    C183    C    0.91191   0.70333   0.55680   1.000
    C184    C    0.40851   0.17930   0.40897   1.000
    C185    C    0.40861   0.17891   0.90934   1.000
    C186    C    0.40891   0.67979   0.40849   1.000
    C187    C    0.40861   0.67947   0.90910   1.000
    C188    C    0.90850   0.17929   0.40898   1.000
    C189    C    0.90860   0.17891   0.90935   1.000
    C190    C    0.90891   0.67980   0.40848   1.000
    C191    C    0.90859   0.67948   0.90917   1.000
    C192    C    0.38498   0.44308   0.20294   1.000
    C193    C    0.38475   0.44333   0.70313   1.000
    C194    C    0.38469   0.94356   0.20286   1.000
    C195    C    0.38482   0.94326   0.70310   1.000
    C196    C    0.88497   0.44309   0.20293   1.000
    C197    C    0.88474   0.44333   0.70312   1.000
    C198    C    0.88468   0.94356   0.20286   1.000
    C199    C    0.88481   0.94326   0.70310   1.000
    C200    C    0.41249   0.09078   0.17891   1.000
    C201    C    0.41184   0.09085   0.67954   1.000
    C202    C    0.41215   0.59085   0.17923   1.000
    C203    C    0.41105   0.59171   0.67989   1.000
    C204    C    0.91249   0.09078   0.17891   1.000
    C205    C    0.91184   0.09085   0.67954   1.000
    C206    C    0.91214   0.59086   0.17923   1.000
    C207    C    0.91105   0.59171   0.67989   1.000
    C208    C    0.03119   0.05681   0.29678   1.000
    C209    C    0.03115   0.05629   0.79729   1.000
    C210    C    0.03119   0.55696   0.29657   1.000
    C211    C    0.03096   0.55689   0.79711   1.000
    C212    C    0.53118   0.05681   0.29678   1.000
    C213    C    0.53114   0.05629   0.79729   1.000
    C214    C    0.53119   0.55696   0.29657   1.000
    C215    C    0.53095   0.55689   0.79711   1.000
    C216    C    0.18263   0.40850   0.32026   1.000
    C217    C    0.18256   0.40900   0.82070   1.000
    C218    C    0.18222   0.90924   0.32055   1.000
    C219    C    0.18233   0.90922   0.82108   1.000
    C220    C    0.68263   0.40850   0.32020   1.000
    C221    C    0.68256   0.40898   0.82069   1.000
    C222    C    0.68221   0.90924   0.32055   1.000
    C223    C    0.68232   0.90922   0.82100   1.000
    C224    C    0.21267   0.19335   0.04700   1.000
    C225    C    0.21296   0.19302   0.54695   1.000
    C226    C    0.21259   0.69334   0.04715   1.000
    C227    C    0.21281   0.69328   0.54678   1.000
    C228    C    0.71265   0.19336   0.04701   1.000
    C229    C    0.71295   0.19302   0.54696   1.000
    C230    C    0.71259   0.69334   0.04714   1.000
    C231    C    0.71281   0.69328   0.54678   1.000
    C232    C    0.21657   0.34099   0.07051   1.000
    C233    C    0.21621   0.34101   0.57066   1.000
    C234    C    0.21632   0.84072   0.07097   1.000
    C235    C    0.21627   0.84071   0.57074   1.000
    C236    C    0.71657   0.34098   0.07053   1.000
    C237    C    0.71619   0.34101   0.57066   1.000
    C238    C    0.71631   0.84072   0.07090   1.000
    C239    C    0.71626   0.84072   0.57070   1.000
    C240    C    0.45301   0.30672   0.45320   1.000
    C241    C    0.45315   0.30655   0.95251   1.000
    C242    C    0.45285   0.80707   0.45304   1.000
    C243    C    0.45313   0.80669   0.95300   1.000
    C244    C    0.95300   0.30672   0.45323   1.000
    C245    C    0.95313   0.30655   0.95251   1.000
    C246    C    0.95284   0.80706   0.45300   1.000
    C247    C    0.95312   0.80668   0.95302   1.000
    C248    C    0.12767   0.15921   0.42933   1.000
    C249    C    0.12801   0.15893   0.92940   1.000
    C250    C    0.12794   0.65891   0.42934   1.000
    C251    C    0.12786   0.65887   0.92975   1.000
    C252    C    0.62766   0.15921   0.42934   1.000
    C253    C    0.62801   0.15892   0.92940   1.000
    C254    C    0.62794   0.65892   0.42930   1.000
    C255    C    0.62787   0.65888   0.92973   1.000
    C256    C    0.09405   0.45297   0.19320   1.000
    C257    C    0.09386   0.45325   0.69324   1.000
    C258    C    0.09398   0.95290   0.19342   1.000
    C259    C    0.09416   0.95268   0.69346   1.000
    C260    C    0.59404   0.45297   0.19320   1.000
    C261    C    0.59385   0.45325   0.69324   1.000
    C262    C    0.59397   0.95290   0.19342   1.000
    C263    C    0.59415   0.95268   0.69346   1.000
    C264    C    0.44273   0.42936   0.34110   1.000
    C265    C    0.44316   0.42929   0.84059   1.000
    C266    C    0.44231   0.92991   0.34124   1.000
    C267    C    0.44296   0.92910   0.84085   1.000
    C268    C    0.94272   0.42935   0.34109   1.000
    C269    C    0.94316   0.42928   0.84058   1.000
    C270    C    0.94231   0.92990   0.34123   1.000
    C271    C    0.94295   0.92911   0.84080   1.000
    C272    C    0.24024   0.04736   0.30650   1.000
    C273    C    0.24031   0.04698   0.80679   1.000
    C274    C    0.24029   0.54686   0.30668   1.000
    C275    C    0.24010   0.54692   0.80706   1.000
    C276    C    0.74023   0.04735   0.30652   1.000
    C277    C    0.74030   0.04698   0.80679   1.000
    C278    C    0.74028   0.54686   0.30668   1.000
    C279    C    0.74009   0.54692   0.80705   1.000
    C280    C    0.21315   0.07063   0.15886   1.000
    C281    C    0.21319   0.07035   0.65895   1.000
    C282    C    0.21335   0.57043   0.15886   1.000
    C283    C    0.21310   0.57071   0.65900   1.000
    C284    C    0.71312   0.07065   0.15889   1.000
    C285    C    0.71318   0.07036   0.65896   1.000
    C286    C    0.71334   0.57042   0.15885   1.000
    C287    C    0.71310   0.57071   0.65900   1.000
    O288    O    0.02993   0.27575   0.05487   1.000
    O289    O    0.09528   0.19494   0.97415   1.000
    O290    O    0.52992   0.27575   0.05487   1.000
    O291    O    0.59528   0.19494   0.97415   1.000
    O292    O    0.02954   0.77606   0.05498   1.000
    O293    O    0.09513   0.69498   0.97445   1.000
    O294    O    0.52953   0.77606   0.05498   1.000
    O295    O    0.59513   0.69498   0.97445   1.000
    O296    O    0.23949   0.17712   0.06520   1.000
    O297    O    0.73947   0.17713   0.06523   1.000
    O298    O    0.73940   0.67712   0.06536   1.000
    O299    O    0.23940   0.67712   0.06537   1.000
    O300    O    0.88573   0.18461   0.07261   1.000
    O301    O    0.38574   0.18461   0.07262   1.000
    O302    O    0.88550   0.68473   0.07290   1.000
    O303    O    0.38551   0.68473   0.07290   1.000
    O304    O    0.17144   0.35345   0.08909   1.000
    O305    O    0.26455   0.30496   0.02570   1.000
    O306    O    0.67144   0.35345   0.08910   1.000
    O307    O    0.76455   0.30495   0.02570   1.000
    O308    O    0.67116   0.85332   0.08940   1.000
    O309    O    0.76440   0.80490   0.02603   1.000
    O310    O    0.17117   0.85332   0.08944   1.000
    O311    O    0.26441   0.80490   0.02606   1.000
    O312    O    0.31266   0.16360   0.08611   1.000
    O313    O    0.26633   0.13430   0.10861   1.000
    O314    O    0.81265   0.16361   0.08612   1.000
    O315    O    0.76631   0.13431   0.10864   1.000
    O316    O    0.81252   0.66365   0.08632   1.000
    O317    O    0.76627   0.63427   0.10874   1.000
    O318    O    0.31253   0.66365   0.08632   1.000
    O319    O    0.26628   0.63427   0.10875   1.000
    O320    O    0.85911   0.14107   0.11535   1.000
    O321    O    0.35912   0.14107   0.11531   1.000
    O322    O    0.35893   0.64114   0.11558   1.000
    O323    O    0.85892   0.64114   0.11558   1.000
    O324    O    0.01083   0.83952   0.10336   1.000
    O325    O    0.51082   0.83951   0.10336   1.000
    O326    O    0.01137   0.33911   0.10335   1.000
    O327    O    0.51137   0.33910   0.10336   1.000
    O328    O    0.57587   0.36179   0.11177   1.000
    O329    O    0.59969   0.39112   0.13425   1.000
    O330    O    0.07587   0.36179   0.11176   1.000
    O331    O    0.09969   0.39113   0.13424   1.000
    O332    O    0.07550   0.86195   0.11190   1.000
    O333    O    0.09943   0.89116   0.13445   1.000
    O334    O    0.57549   0.86195   0.11191   1.000
    O335    O    0.59943   0.89116   0.13445   1.000
    O336    O    0.00021   0.38422   0.14109   1.000
    O337    O    0.50022   0.38422   0.14109   1.000
    O338    O    0.99983   0.88456   0.14112   1.000
    O339    O    0.49983   0.88455   0.14113   1.000
    O340    O    0.31278   0.11176   0.13781   1.000
    O341    O    0.23975   0.08917   0.14634   1.000
    O342    O    0.81276   0.11177   0.13786   1.000
    O343    O    0.73972   0.08919   0.14636   1.000
    O344    O    0.81267   0.61176   0.13800   1.000
    O345    O    0.73984   0.58903   0.14638   1.000
    O346    O    0.31268   0.61176   0.13801   1.000
    O347    O    0.23985   0.58904   0.14639   1.000
    O348    O    0.38585   0.10330   0.16035   1.000
    O349    O    0.88585   0.10330   0.16040   1.000
    O350    O    0.88557   0.60336   0.16067   1.000
    O351    O    0.38558   0.60336   0.16067   1.000
    O352    O    0.71003   0.52563   0.19487   1.000
    O353    O    0.21003   0.52563   0.19487   1.000
    O354    O    0.20984   0.02587   0.19487   1.000
    O355    O    0.70982   0.02588   0.19489   1.000
    O356    O    0.02403   0.41356   0.16357   1.000
    O357    O    0.08356   0.43465   0.17701   1.000
    O358    O    0.52404   0.41355   0.16358   1.000
    O359    O    0.58355   0.43465   0.17702   1.000
    O360    O    0.02377   0.91376   0.16367   1.000
    O361    O    0.08342   0.93465   0.17721   1.000
    O362    O    0.52377   0.91376   0.16367   1.000
    O363    O    0.58341   0.93465   0.17721   1.000
    O364    O    0.42999   0.42693   0.18463   1.000
    O365    O    0.92999   0.42693   0.18463   1.000
    O366    O    0.92968   0.92734   0.18460   1.000
    O367    O    0.42969   0.92734   0.18460   1.000
    O368    O    0.41547   0.05500   0.22390   1.000
    O369    O    0.91547   0.05499   0.22390   1.000
    O370    O    0.41537   0.55488   0.22408   1.000
    O371    O    0.91537   0.55488   0.22408   1.000
    O372    O    0.19468   0.44467   0.27557   1.000
    O373    O    0.69467   0.44467   0.27554   1.000
    O374    O    0.19438   0.94517   0.27572   1.000
    O375    O    0.69437   0.94517   0.27572   1.000
    O376    O    0.93038   0.97455   0.30505   1.000
    O377    O    0.43039   0.97456   0.30506   1.000
    O378    O    0.93066   0.47413   0.30501   1.000
    O379    O    0.43067   0.47413   0.30501   1.000
    O380    O    0.04171   0.57313   0.31489   1.000
    O381    O    0.54170   0.57312   0.31490   1.000
    O382    O    0.04166   0.07301   0.31510   1.000
    O383    O    0.54165   0.07301   0.31510   1.000
    O384    O    0.19521   0.06559   0.32272   1.000
    O385    O    0.69520   0.06558   0.32273   1.000
    O386    O    0.69529   0.56524   0.32278   1.000
    O387    O    0.19529   0.56523   0.32279   1.000
    O388    O    0.64995   0.39608   0.33885   1.000
    O389    O    0.14996   0.39608   0.33891   1.000
    O390    O    0.64955   0.89678   0.33913   1.000
    O391    O    0.14956   0.89677   0.33914   1.000
    O392    O    0.10126   0.58645   0.33605   1.000
    O393    O    0.02565   0.61589   0.35841   1.000
    O394    O    0.60126   0.58644   0.33606   1.000
    O395    O    0.52565   0.61589   0.35842   1.000
    O396    O    0.60115   0.08650   0.33619   1.000
    O397    O    0.52546   0.11573   0.35869   1.000
    O398    O    0.10115   0.08650   0.33618   1.000
    O399    O    0.02547   0.11573   0.35869   1.000
    O400    O    0.62510   0.60883   0.36546   1.000
    O401    O    0.12511   0.60883   0.36546   1.000
    O402    O    0.12493   0.10899   0.36554   1.000
    O403    O    0.62492   0.10899   0.36555   1.000
    O404    O    0.97538   0.41071   0.35353   1.000
    O405    O    0.47539   0.41071   0.35350   1.000
    O406    O    0.97501   0.91127   0.35365   1.000
    O407    O    0.47500   0.91128   0.35365   1.000
    O408    O    0.56266   0.38787   0.36170   1.000
    O409    O    0.61588   0.35849   0.38416   1.000
    O410    O    0.06266   0.38787   0.36178   1.000
    O411    O    0.11588   0.35850   0.38420   1.000
    O412    O    0.56229   0.88848   0.36188   1.000
    O413    O    0.61554   0.85907   0.38425   1.000
    O414    O    0.06230   0.88847   0.36190   1.000
    O415    O    0.11555   0.85906   0.38426   1.000
    O416    O    0.50939   0.36552   0.39115   1.000
    O417    O    0.00940   0.36552   0.39123   1.000
    O418    O    0.50909   0.86604   0.39125   1.000
    O419    O    0.00911   0.86603   0.39125   1.000
    O420    O    0.04949   0.63827   0.38782   1.000
    O421    O    0.95399   0.66114   0.39605   1.000
    O422    O    0.54949   0.63827   0.38783   1.000
    O423    O    0.45399   0.66114   0.39605   1.000
    O424    O    0.04924   0.13821   0.38805   1.000
    O425    O    0.95366   0.16077   0.39647   1.000
    O426    O    0.54924   0.13821   0.38805   1.000
    O427    O    0.45366   0.16078   0.39646   1.000
    O428    O    0.11393   0.64649   0.41069   1.000
    O429    O    0.61392   0.64648   0.41067   1.000
    O430    O    0.61366   0.14669   0.41075   1.000
    O431    O    0.11367   0.14669   0.41074   1.000
    O432    O    0.86069   0.72447   0.44465   1.000
    O433    O    0.36070   0.72446   0.44466   1.000
    O434    O    0.36051   0.22410   0.44503   1.000
    O435    O    0.86050   0.22409   0.44503   1.000
    O436    O    0.06236   0.83662   0.41362   1.000
    O437    O    0.14309   0.81547   0.42692   1.000
    O438    O    0.56235   0.83662   0.41362   1.000
    O439    O    0.64308   0.81547   0.42692   1.000
    O440    O    0.56261   0.33614   0.41361   1.000
    O441    O    0.64329   0.31503   0.42700   1.000
    O442    O    0.06261   0.33615   0.41364   1.000
    O443    O    0.14329   0.31504   0.42701   1.000
    O444    O    0.48188   0.32284   0.43480   1.000
    O445    O    0.98168   0.82324   0.43472   1.000
    O446    O    0.48167   0.82325   0.43474   1.000
    O447    O    0.98188   0.32284   0.43485   1.000
    O448    O    0.59518   0.69502   0.47409   1.000
    O449    O    0.09508   0.19506   0.47421   1.000
    O450    O    0.59507   0.19506   0.47426   1.000
    O451    O    0.09518   0.69502   0.47411   1.000
    O452    O    0.26438   0.80492   0.52578   1.000
    O453    O    0.76437   0.80493   0.52576   1.000
    O454    O    0.76435   0.30495   0.52587   1.000
    O455    O    0.26436   0.30495   0.52587   1.000
    O456    O    0.52962   0.77590   0.55497   1.000
    O457    O    0.02963   0.77590   0.55494   1.000
    O458    O    0.02981   0.27559   0.55532   1.000
    O459    O    0.52980   0.27559   0.55535   1.000
    O460    O    0.23943   0.67718   0.56516   1.000
    O461    O    0.73942   0.67718   0.56516   1.000
    O462    O    0.23964   0.17685   0.56527   1.000
    O463    O    0.73963   0.17686   0.56528   1.000
    O464    O    0.38518   0.68506   0.57301   1.000
    O465    O    0.88517   0.68506   0.57300   1.000
    O466    O    0.38553   0.18456   0.57304   1.000
    O467    O    0.88552   0.18456   0.57304   1.000
    O468    O    0.17112   0.35348   0.58929   1.000
    O469    O    0.67111   0.35348   0.58929   1.000
    O470    O    0.67115   0.85325   0.58929   1.000
    O471    O    0.17116   0.85325   0.58931   1.000
    O472    O    0.81223   0.66394   0.58637   1.000
    O473    O    0.76598   0.63456   0.60881   1.000
    O474    O    0.31224   0.66394   0.58638   1.000
    O475    O    0.26598   0.63456   0.60881   1.000
    O476    O    0.31257   0.16347   0.58639   1.000
    O477    O    0.26628   0.13411   0.60879   1.000
    O478    O    0.81256   0.16347   0.58639   1.000
    O479    O    0.76627   0.13412   0.60881   1.000
    O480    O    0.35883   0.14103   0.61577   1.000
    O481    O    0.85882   0.14103   0.61577   1.000
    O482    O    0.85836   0.64164   0.61585   1.000
    O483    O    0.35837   0.64164   0.61586   1.000
    O484    O    0.01095   0.83921   0.60353   1.000
    O485    O    0.51095   0.83920   0.60355   1.000
    O486    O    0.01115   0.33894   0.60392   1.000
    O487    O    0.51114   0.33894   0.60393   1.000
    O488    O    0.07556   0.86176   0.61197   1.000
    O489    O    0.09952   0.89100   0.63446   1.000
    O490    O    0.57555   0.86176   0.61197   1.000
    O491    O    0.59951   0.89100   0.63446   1.000
    O492    O    0.07561   0.36178   0.61212   1.000
    O493    O    0.09946   0.39123   0.63446   1.000
    O494    O    0.57560   0.36179   0.61213   1.000
    O495    O    0.59944   0.39123   0.63446   1.000
    O496    O    0.49993   0.88429   0.64130   1.000
    O497    O    0.99993   0.88429   0.64128   1.000
    O498    O    0.99997   0.38425   0.64147   1.000
    O499    O    0.49996   0.38425   0.64148   1.000
    O500    O    0.31254   0.11167   0.63817   1.000
    O501    O    0.23971   0.08895   0.64648   1.000
    O502    O    0.81253   0.11168   0.63819   1.000
    O503    O    0.73970   0.08895   0.64650   1.000
    O504    O    0.81211   0.61226   0.63829   1.000
    O505    O    0.73951   0.58937   0.64655   1.000
    O506    O    0.31211   0.61227   0.63829   1.000
    O507    O    0.23951   0.58937   0.64655   1.000
    O508    O    0.38534   0.10333   0.66094   1.000
    O509    O    0.88533   0.10333   0.66094   1.000
    O510    O    0.88467   0.60410   0.66119   1.000
    O511    O    0.38468   0.60410   0.66119   1.000
    O512    O    0.20989   0.02560   0.69504   1.000
    O513    O    0.70988   0.02560   0.69504   1.000
    O514    O    0.70978   0.52591   0.69505   1.000
    O515    O    0.20979   0.52591   0.69505   1.000
    O516    O    0.02382   0.41370   0.66380   1.000
    O517    O    0.08337   0.43488   0.67711   1.000
    O518    O    0.52381   0.41370   0.66380   1.000
    O519    O    0.58336   0.43488   0.67711   1.000
    O520    O    0.52389   0.91353   0.66378   1.000
    O521    O    0.58356   0.93445   0.67725   1.000
    O522    O    0.02389   0.91353   0.66378   1.000
    O523    O    0.08357   0.93444   0.67725   1.000
    O524    O    0.92980   0.92705   0.68480   1.000
    O525    O    0.42981   0.92705   0.68481   1.000
    O526    O    0.92975   0.42711   0.68487   1.000
    O527    O    0.42976   0.42711   0.68488   1.000
    O528    O    0.91517   0.05485   0.72433   1.000
    O529    O    0.41518   0.05486   0.72433   1.000
    O530    O    0.91470   0.55547   0.72448   1.000
    O531    O    0.41470   0.55547   0.72448   1.000
    O532    O    0.69451   0.44505   0.77589   1.000
    O533    O    0.19451   0.44505   0.77590   1.000
    O534    O    0.69445   0.94503   0.77606   1.000
    O535    O    0.19446   0.94503   0.77610   1.000
    O536    O    0.43076   0.47426   0.80483   1.000
    O537    O    0.93075   0.47425   0.80483   1.000
    O538    O    0.43074   0.97399   0.80499   1.000
    O539    O    0.93073   0.97398   0.80496   1.000
    O540    O    0.54148   0.57303   0.81545   1.000
    O541    O    0.04149   0.57304   0.81545   1.000
    O542    O    0.54164   0.07251   0.81557   1.000
    O543    O    0.04165   0.07251   0.81557   1.000
    O544    O    0.69527   0.06518   0.82302   1.000
    O545    O    0.19528   0.06518   0.82302   1.000
    O546    O    0.69509   0.56523   0.82322   1.000
    O547    O    0.19510   0.56523   0.82322   1.000
    O548    O    0.64991   0.39647   0.83920   1.000
    O549    O    0.14992   0.39647   0.83920   1.000
    O550    O    0.64968   0.89671   0.83955   1.000
    O551    O    0.14969   0.89670   0.83959   1.000
    O552    O    0.60105   0.58636   0.83658   1.000
    O553    O    0.52542   0.61573   0.85901   1.000
    O554    O    0.10106   0.58636   0.83658   1.000
    O555    O    0.02542   0.61573   0.85901   1.000
    O556    O    0.60119   0.08606   0.83655   1.000
    O557    O    0.52552   0.11529   0.85908   1.000
    O558    O    0.10120   0.08606   0.83654   1.000
    O559    O    0.02552   0.11529   0.85908   1.000
    O560    O    0.12504   0.10861   0.86581   1.000
    O561    O    0.62504   0.10861   0.86581   1.000
    O562    O    0.62491   0.60876   0.86596   1.000
    O563    O    0.12491   0.60876   0.86596   1.000
    O564    O    0.97571   0.41071   0.85279   1.000
    O565    O    0.47571   0.41071   0.85310   1.000
    O566    O    0.97553   0.91065   0.85342   1.000
    O567    O    0.47553   0.91064   0.85345   1.000
    O568    O    0.06277   0.38804   0.86135   1.000
    O569    O    0.11581   0.35872   0.88425   1.000
    O570    O    0.56276   0.38804   0.86165   1.000
    O571    O    0.61581   0.35872   0.88425   1.000
    O572    O    0.06257   0.88819   0.86207   1.000
    O573    O    0.11562   0.85899   0.88469   1.000
    O574    O    0.56257   0.88819   0.86207   1.000
    O575    O    0.61562   0.85899   0.88469   1.000
    O576    O    0.00956   0.36554   0.89054   1.000
    O577    O    0.50956   0.36554   0.89085   1.000
    O578    O    0.50942   0.86566   0.89130   1.000
    O579    O    0.00943   0.86565   0.89130   1.000
    O580    O    0.54928   0.63813   0.88839   1.000
    O581    O    0.45372   0.66088   0.89667   1.000
    O582    O    0.04928   0.63813   0.88839   1.000
    O583    O    0.95371   0.66088   0.89671   1.000
    O584    O    0.04937   0.13784   0.88834   1.000
    O585    O    0.95375   0.16038   0.89683   1.000
    O586    O    0.54936   0.13784   0.88834   1.000
    O587    O    0.45375   0.16038   0.89683   1.000
    O588    O    0.61392   0.14637   0.91088   1.000
    O589    O    0.11392   0.14638   0.91088   1.000
    O590    O    0.61380   0.64643   0.91113   1.000
    O591    O    0.11379   0.64642   0.91115   1.000
    O592    O    0.36055   0.72428   0.94512   1.000
    O593    O    0.86054   0.72428   0.94516   1.000
    O594    O    0.36057   0.22392   0.94511   1.000
    O595    O    0.86056   0.22392   0.94511   1.000
    O596    O    0.56261   0.33622   0.91345   1.000
    O597    O    0.64311   0.31520   0.92704   1.000
    O598    O    0.06261   0.33622   0.91345   1.000
    O599    O    0.14311   0.31521   0.92705   1.000
    O600    O    0.56247   0.83646   0.91392   1.000
    O601    O    0.64297   0.81554   0.92751   1.000
    O602    O    0.06248   0.83645   0.91392   1.000
    O603    O    0.14297   0.81554   0.92749   1.000
    O604    O    0.98200   0.32275   0.93430   1.000
    O605    O    0.48200   0.32275   0.93430   1.000
    O606    O    0.48194   0.82291   0.93478   1.000
    O607    O    0.98194   0.82290   0.93479   1.000
    O608    O    0.11730   0.26383   0.48114   1.000
    O609    O    0.24231   0.28282   0.46214   1.000
    O610    O    0.11721   0.26394   0.98109   1.000
    O611    O    0.24220   0.28292   0.96208   1.000
    O612    O    0.11720   0.76413   0.48097   1.000
    O613    O    0.24223   0.78313   0.46194   1.000
    O614    O    0.11707   0.76419   0.98143   1.000
    O615    O    0.24212   0.78318   0.96243   1.000
    O616    O    0.61730   0.26382   0.48118   1.000
    O617    O    0.74231   0.28282   0.46214   1.000
    O618    O    0.61720   0.26394   0.98109   1.000
    O619    O    0.74219   0.28292   0.96208   1.000
    O620    O    0.61718   0.76413   0.48097   1.000
    O621    O    0.74222   0.78314   0.46194   1.000
    O622    O    0.61707   0.76419   0.98145   1.000
    O623    O    0.74211   0.78319   0.96245   1.000
    O624    O    0.48750   0.21693   0.03767   1.000
    O625    O    0.36249   0.23591   0.01866   1.000
    O626    O    0.48736   0.21688   0.53803   1.000
    O627    O    0.36238   0.23588   0.51898   1.000
    O628    O    0.48729   0.71707   0.03795   1.000
    O629    O    0.36235   0.73607   0.01895   1.000
    O630    O    0.48717   0.71722   0.53784   1.000
    O631    O    0.36221   0.73623   0.51881   1.000
    O632    O    0.98750   0.21693   0.03764   1.000
    O633    O    0.86249   0.23591   0.01864   1.000
    O634    O    0.98736   0.21688   0.53799   1.000
    O635    O    0.86237   0.23588   0.51898   1.000
    O636    O    0.98729   0.71707   0.03795   1.000
    O637    O    0.86233   0.73607   0.01895   1.000
    O638    O    0.98717   0.71723   0.53784   1.000
    O639    O    0.86220   0.73623   0.51881   1.000
    O640    O    0.40179   0.48100   0.23594   1.000
    O641    O    0.29585   0.46196   0.21691   1.000
    O642    O    0.40155   0.48127   0.73610   1.000
    O643    O    0.29561   0.46222   0.71711   1.000
    O644    O    0.40158   0.98138   0.23587   1.000
    O645    O    0.29561   0.96233   0.21688   1.000
    O646    O    0.40167   0.98106   0.73611   1.000
    O647    O    0.29570   0.96205   0.71711   1.000
    O648    O    0.90178   0.48100   0.23592   1.000
    O649    O    0.79585   0.46196   0.21691   1.000
    O650    O    0.90154   0.48127   0.73610   1.000
    O651    O    0.79560   0.46222   0.71710   1.000
    O652    O    0.90157   0.98139   0.23587   1.000
    O653    O    0.79560   0.96234   0.21688   1.000
    O654    O    0.90166   0.98106   0.73611   1.000
    O655    O    0.79570   0.96205   0.71711   1.000
    O656    O    0.97482   0.03801   0.28283   1.000
    O657    O    0.11886   0.01896   0.26383   1.000
    O658    O    0.97483   0.03757   0.78321   1.000
    O659    O    0.11887   0.01856   0.76421   1.000
    O660    O    0.97489   0.53794   0.28275   1.000
    O661    O    0.11896   0.51890   0.26372   1.000
    O662    O    0.97465   0.53806   0.78309   1.000
    O663    O    0.11871   0.51900   0.76410   1.000
    O664    O    0.47482   0.03801   0.28283   1.000
    O665    O    0.61885   0.01896   0.26383   1.000
    O666    O    0.47483   0.03758   0.78321   1.000
    O667    O    0.61886   0.01857   0.76421   1.000
    O668    O    0.47489   0.53794   0.28275   1.000
    O669    O    0.61895   0.51890   0.26372   1.000
    O670    O    0.47465   0.53806   0.78309   1.000
    O671    O    0.61871   0.51900   0.76410   1.000
    O672    O    0.13761   0.21215   0.03295   1.000
    O673    O    0.26260   0.23114   0.01394   1.000
    O674    O    0.13773   0.21196   0.53302   1.000
    O675    O    0.26274   0.23096   0.51401   1.000
    O676    O    0.13750   0.71221   0.03315   1.000
    O677    O    0.26255   0.73121   0.01415   1.000
    O678    O    0.13762   0.71220   0.53283   1.000
    O679    O    0.26265   0.73121   0.51380   1.000
    O680    O    0.63760   0.21216   0.03296   1.000
    O681    O    0.76259   0.23114   0.01394   1.000
    O682    O    0.63772   0.21196   0.53307   1.000
    O683    O    0.76273   0.23096   0.51402   1.000
    O684    O    0.63749   0.71221   0.03315   1.000
    O685    O    0.76254   0.73121   0.01415   1.000
    O686    O    0.63761   0.71220   0.53283   1.000
    O687    O    0.76264   0.73121   0.51380   1.000
    O688    O    0.50775   0.26881   0.48618   1.000
    O689    O    0.38276   0.28781   0.46714   1.000
    O690    O    0.50785   0.26876   0.98570   1.000
    O691    O    0.38284   0.28774   0.96669   1.000
    O692    O    0.50763   0.76910   0.48596   1.000
    O693    O    0.38267   0.78810   0.46693   1.000
    O694    O    0.50776   0.76889   0.98608   1.000
    O695    O    0.38282   0.78788   0.96708   1.000
    O696    O    0.00775   0.26881   0.48617   1.000
    O697    O    0.88276   0.28781   0.46716   1.000
    O698    O    0.00784   0.26876   0.98570   1.000
    O699    O    0.88283   0.28774   0.96669   1.000
    O700    O    0.00763   0.76909   0.48594   1.000
    O701    O    0.88266   0.78810   0.46691   1.000
    O702    O    0.00776   0.76889   0.98609   1.000
    O703    O    0.88281   0.78788   0.96709   1.000
    O704    O    0.00632   0.48594   0.23106   1.000
    O705    O    0.15038   0.46690   0.21204   1.000
    O706    O    0.00610   0.48624   0.73116   1.000
    O707    O    0.15017   0.46718   0.71217   1.000
    O708    O    0.00622   0.98605   0.23115   1.000
    O709    O    0.15025   0.96700   0.21215   1.000
    O710    O    0.00633   0.98577   0.73129   1.000
    O711    O    0.15038   0.96676   0.71229   1.000
    O712    O    0.50632   0.48594   0.23106   1.000
    O713    O    0.65038   0.46690   0.21204   1.000
    O714    O    0.50610   0.48624   0.73116   1.000
    O715    O    0.65016   0.46718   0.71217   1.000
    O716    O    0.50622   0.98606   0.23115   1.000
    O717    O    0.65024   0.96700   0.21215   1.000
    O718    O    0.50633   0.98577   0.73129   1.000
    O719    O    0.65037   0.96676   0.71229   1.000
    O720    O    0.32935   0.03329   0.28769   1.000
    O721    O    0.22338   0.01423   0.26869   1.000
    O722    O    0.32941   0.03292   0.78796   1.000
    O723    O    0.22345   0.01391   0.76896   1.000
    O724    O    0.32944   0.53289   0.28780   1.000
    O725    O    0.22351   0.51385   0.26878   1.000
    O726    O    0.32922   0.53307   0.78807   1.000
    O727    O    0.22328   0.51402   0.76908   1.000
    O728    O    0.82935   0.03328   0.28770   1.000
    O729    O    0.72338   0.01423   0.26871   1.000
    O730    O    0.82941   0.03292   0.78796   1.000
    O731    O    0.72344   0.01391   0.76896   1.000
    O732    O    0.82944   0.53289   0.28780   1.000
    O733    O    0.72350   0.51385   0.26878   1.000
    O734    O    0.82922   0.53307   0.78806   1.000
    O735    O    0.72328   0.51401   0.76907   1.000
loop_
    _geom_bond_atom_site_label_1
    _geom_bond_atom_site_label_2
    _geom_bond_distance
    _geom_bond_site_symmetry_2
    _ccdc_geom_bond_type
    C0     O288      1.15904      .   S
    C168   O288      1.15904  1_655   S
    C0     O289      1.15868  1_554   S
    C249   O289      1.15868      .   S
    C4     O290      1.15900      .   S
    C172   O290      1.15900      .   S
    C4     O291      1.15878  1_554   S
    C253   O291      1.15878      .   S
    C2     O292      1.15974      .   S
    C170   O292      1.15974  1_655   S
    C2     O293      1.15924  1_554   S
    C251   O293      1.15924      .   S
    C6     O294      1.15972      .   S
    C174   O294      1.15972      .   S
    C6     O295      1.15935  1_554   S
    C255   O295      1.15935      .   S
    C224   O296      0.63740      .   S
    C96    O296      0.63740      .   S
    C228   O297      0.63764      .   S
    C100   O297      0.63764      .   S
    C230   O298      0.63760      .   S
    C102   O298      0.63760      .   S
    C226   O299      0.63759      .   S
    C98    O299      0.63759      .   S
    C180   O300      0.63773      .   S
    C52    O300      0.63773      .   S
    C176   O301      0.63763      .   S
    C48    O301      0.63763      .   S
    C182   O302      0.63766      .   S
    C54    O302      0.63766      .   S
    C178   O303      0.63765      .   S
    C50    O303      0.63765      .   S
    C232   O304      0.62500      .   S
    C104   O304      0.62500      .   S
    C232   O305      1.15984      .   S
    C9     O305      1.15984  1_556   S
    C236   O306      0.62498      .   S
    C108   O306      0.62498      .   S
    C236   O307      1.15994      .   S
    C13    O307      1.15994  1_556   S
    C238   O308      0.62519      .   S
    C110   O308      0.62519      .   S
    C238   O309      1.15842      .   S
    C15    O309      1.15842  1_556   S
    C234   O310      0.62495      .   S
    C106   O310      0.62495      .   S
    C234   O311      1.15896      .   S
    C11    O311      1.15896  1_556   S
    C96    O312      0.72429      .   S
    C48    O312      0.72429      .   S
    C96    O313      0.73569      .   S
    C152   O313      0.73569      .   S
    C100   O314      0.72415      .   S
    C52    O314      0.72415      .   S
    C100   O315      0.73553      .   S
    C156   O315      0.73553      .   S
    C102   O316      0.72424      .   S
    C54    O316      0.72424      .   S
    C102   O317      0.73556      .   S
    C158   O317      0.73556      .   S
    C98    O318      0.72421      .   S
    C50    O318      0.72421      .   S
    C98    O319      0.73557      .   S
    C154   O319      0.73557      .   S
    C52    O320      0.73550      .   S
    C76    O320      0.73550      .   S
    C48    O321      0.73495      .   S
    C72    O321      0.73495      .   S
    C50    O322      0.73563      .   S
    C74    O322      0.73563      .   S
    C54    O323      0.73558      .   S
    C78    O323      0.73558      .   S
    C170   O324      0.62500  1_655   S
    C42    O324      0.62500      .   S
    C174   O325      0.62504      .   S
    C46    O325      0.62504      .   S
    C168   O326      0.62506  1_655   S
    C40    O326      0.62506      .   S
    C172   O327      0.62503      .   S
    C44    O327      0.62503      .   S
    C108   O328      0.74972      .   S
    C44    O328      0.74972      .   S
    C108   O329      0.73563      .   S
    C132   O329      0.73563      .   S
    C104   O330      0.74970      .   S
    C40    O330      0.74970      .   S
    C104   O331      0.73565      .   S
    C128   O331      0.73565      .   S
    C106   O332      0.74971      .   S
    C42    O332      0.74971      .   S
    C106   O333      0.73559      .   S
    C130   O333      0.73559      .   S
    C110   O334      0.74970      .   S
    C46    O334      0.74970      .   S
    C110   O335      0.73557      .   S
    C134   O335      0.73557      .   S
    C40    O336      0.73548      .   S
    C68    O336      0.73548  1_655   S
    C44    O337      0.73549      .   S
    C64    O337      0.73549      .   S
    C42    O338      0.73547  1_455   S
    C70    O338      0.73547      .   S
    C46    O339      0.73543      .   S
    C66    O339      0.73543      .   S
    C152   O340      0.74928      .   S
    C72    O340      0.74928      .   S
    C152   O341      0.62496      .   S
    C280   O341      0.62496      .   S
    C156   O342      0.74961      .   S
    C76    O342      0.74961      .   S
    C156   O343      0.62497      .   S
    C284   O343      0.62497      .   S
    C158   O344      0.74951      .   S
    C78    O344      0.74951      .   S
    C158   O345      0.62499      .   S
    C286   O345      0.62499      .   S
    C154   O346      0.74952      .   S
    C74    O346      0.74952      .   S
    C154   O347      0.62498      .   S
    C282   O347      0.62498      .   S
    C72    O348      0.62563      .   S
    C200   O348      0.62563      .   S
    C76    O349      0.62500      .   S
    C204   O349      0.62500      .   S
    C78    O350      0.62503      .   S
    C206   O350      0.62503      .   S
    C74    O351      0.62496      .   S
    C202   O351      0.62496      .   S
    C286   O352      1.15951      .   S
    C28    O352      1.15951      .   S
    C282   O353      1.15950      .   S
    C24    O353      1.15950      .   S
    C280   O354      1.15902      .   S
    C26    O354      1.15902  1_565   S
    C284   O355      1.15898      .   S
    C30    O355      1.15898  1_565   S
    C128   O356      0.72424      .   S
    C68    O356      0.72424  1_655   S
    C128   O357      0.63763      .   S
    C256   O357      0.63763      .   S
    C132   O358      0.72414      .   S
    C64    O358      0.72414      .   S
    C132   O359      0.63759      .   S
    C260   O359      0.63759      .   S
    C130   O360      0.72422      .   S
    C70    O360      0.72422  1_655   S
    C130   O361      0.63757      .   S
    C258   O361      0.63757      .   S
    C134   O362      0.72411      .   S
    C66    O362      0.72411      .   S
    C134   O363      0.63760      .   S
    C262   O363      0.63760      .   S
    C64    O364      0.63768      .   S
    C192   O364      0.63768      .   S
    C68    O365      0.63765      .   S
    C196   O365      0.63765      .   S
    C70    O366      0.63765      .   S
    C198   O366      0.63765      .   S
    C66    O367      0.63764      .   S
    C194   O367      0.63764      .   S
    C200   O368      1.15948      .   S
    C16    O368      1.15948      .   S
    C204   O369      1.15949      .   S
    C20    O369      1.15949      .   S
    C202   O370      1.15978      .   S
    C18    O370      1.15978      .   S
    C206   O371      1.15971      .   S
    C22    O371      1.15971      .   S
    C24    O372      1.15993      .   S
    C216   O372      1.15993      .   S
    C28    O373      1.15953      .   S
    C220   O373      1.15953      .   S
    C26    O374      1.15909      .   S
    C218   O374      1.15909      .   S
    C30    O375      1.15910      .   S
    C222   O375      1.15910      .   S
    C20    O376      1.15933  1_545   S
    C270   O376      1.15933      .   S
    C16    O377      1.15933  1_545   S
    C266   O377      1.15933      .   S
    C22    O378      1.16021      .   S
    C268   O378      1.16021      .   S
    C18    O379      1.16020      .   S
    C264   O379      1.16020      .   S
    C210   O380      0.63766      .   S
    C82    O380      0.63766      .   S
    C214   O381      0.63769      .   S
    C86    O381      0.63769      .   S
    C208   O382      0.63767      .   S
    C80    O382      0.63767      .   S
    C212   O383      0.63771      .   S
    C84    O383      0.63771      .   S
    C272   O384      0.63763      .   S
    C144   O384      0.63763      .   S
    C276   O385      0.63761      .   S
    C148   O385      0.63761      .   S
    C278   O386      0.63771      .   S
    C150   O386      0.63771      .   S
    C274   O387      0.63770      .   S
    C146   O387      0.63770      .   S
    C220   O388      0.62496      .   S
    C92    O388      0.62496      .   S
    C216   O389      0.62503      .   S
    C88    O389      0.62503      .   S
    C222   O390      0.62487      .   S
    C94    O390      0.62487      .   S
    C218   O391      0.62499      .   S
    C90    O391      0.62499      .   S
    C82    O392      0.72426      .   S
    C146   O392      0.72426      .   S
    C82    O393      0.73568      .   S
    C58    O393      0.73568  1_655   S
    C86    O394      0.72425      .   S
    C150   O394      0.72425      .   S
    C86    O395      0.73571      .   S
    C62    O395      0.73571      .   S
    C84    O396      0.72418      .   S
    C148   O396      0.72418      .   S
    C84    O397      0.73554      .   S
    C60    O397      0.73554      .   S
    C80    O398      0.72418      .   S
    C144   O398      0.72418      .   S
    C80    O399      0.73556      .   S
    C56    O399      0.73556  1_655   S
    C150   O400      0.73561      .   S
    C126   O400      0.73561      .   S
    C146   O401      0.73563      .   S
    C122   O401      0.73563      .   S
    C144   O402      0.73561      .   S
    C120   O402      0.73561      .   S
    C148   O403      0.73560      .   S
    C124   O403      0.73560      .   S
    C268   O404      0.62512      .   S
    C136   O404      0.62512  1_455   S
    C264   O405      0.62452      .   S
    C140   O405      0.62452      .   S
    C270   O406      0.62509      .   S
    C138   O406      0.62509  1_455   S
    C266   O407      0.62497      .   S
    C142   O407      0.62497      .   S
    C92    O408      0.74963      .   S
    C140   O408      0.74963      .   S
    C92    O409      0.73621      .   S
    C36    O409      0.73621      .   S
    C88    O410      0.74964      .   S
    C136   O410      0.74964      .   S
    C88    O411      0.73567      .   S
    C32    O411      0.73567      .   S
    C94    O412      0.74963      .   S
    C142   O412      0.74963      .   S
    C94    O413      0.73580      .   S
    C38    O413      0.73580      .   S
    C90    O414      0.74969      .   S
    C138   O414      0.74969      .   S
    C90    O415      0.73552      .   S
    C34    O415      0.73552      .   S
    C140   O416      0.73571      .   S
    C116   O416      0.73571      .   S
    C136   O417      0.73575      .   S
    C112   O417      0.73575      .   S
    C142   O418      0.73563      .   S
    C118   O418      0.73563      .   S
    C138   O419      0.73563      .   S
    C114   O419      0.73563      .   S
    C58    O420      0.74960  1_655   S
    C122   O420      0.74960      .   S
    C58    O421      0.62507      .   S
    C190   O421      0.62507      .   S
    C62    O422      0.74957      .   S
    C126   O422      0.74957      .   S
    C62    O423      0.62498      .   S
    C186   O423      0.62498      .   S
    C56    O424      0.74960  1_655   S
    C120   O424      0.74960      .   S
    C56    O425      0.62506      .   S
    C188   O425      0.62506      .   S
    C60    O426      0.74959      .   S
    C124   O426      0.74959      .   S
    C60    O427      0.62499      .   S
    C184   O427      0.62499      .   S
    C122   O428      0.62506      .   S
    C250   O428      0.62506      .   S
    C126   O429      0.62477      .   S
    C254   O429      0.62477      .   S
    C124   O430      0.62503      .   S
    C252   O430      0.62503      .   S
    C120   O431      0.62499      .   S
    C248   O431      0.62499      .   S
    C190   O432      1.15967      .   S
    C14    O432      1.15967      .   S
    C186   O433      1.15964      .   S
    C10    O433      1.15964      .   S
    C184   O434      1.15996      .   S
    C8     O434      1.15996      .   S
    C188   O435      1.15995      .   S
    C12    O435      1.15995      .   S
    C34    O436      0.72414      .   S
    C114   O436      0.72414      .   S
    C34    O437      0.63770      .   S
    C162   O437      0.63770      .   S
    C38    O438      0.72417      .   S
    C118   O438      0.72417      .   S
    C38    O439      0.63763      .   S
    C166   O439      0.63763      .   S
    C36    O440      0.72443      .   S
    C116   O440      0.72443      .   S
    C36    O441      0.63764      .   S
    C164   O441      0.63764      .   S
    C32    O442      0.72421      .   S
    C112   O442      0.72421      .   S
    C32    O443      0.63764      .   S
    C160   O443      0.63764      .   S
    C116   O444      0.63790      .   S
    C240   O444      0.63790      .   S
    C114   O445      0.63763  1_455   S
    C246   O445      0.63763      .   S
    C118   O446      0.63771      .   S
    C242   O446      0.63771      .   S
    C112   O447      0.63779  1_455   S
    C244   O447      0.63779      .   S
    C254   O448      1.16051      .   S
    C7     O448      1.16051      .   S
    C248   O449      1.15892      .   S
    C1     O449      1.15892      .   S
    C252   O450      1.15944      .   S
    C5     O450      1.15944      .   S
    C250   O451      1.16021      .   S
    C3     O451      1.16021      .   S
    C10    O452      1.15936      .   S
    C235   O452      1.15936      .   S
    C14    O453      1.15908      .   S
    C239   O453      1.15908      .   S
    C12    O454      1.16004      .   S
    C237   O454      1.16004      .   S
    C8     O455      1.16002      .   S
    C233   O455      1.16002      .   S
    C7     O456      1.15995      .   S
    C175   O456      1.15995      .   S
    C3     O457      1.15970      .   S
    C171   O457      1.15970  1_655   S
    C1     O458      1.16033      .   S
    C169   O458      1.16033  1_655   S
    C5     O459      1.15988      .   S
    C173   O459      1.15988      .   S
    C227   O460      0.63767      .   S
    C99    O460      0.63767      .   S
    C231   O461      0.63765      .   S
    C103   O461      0.63765      .   S
    C225   O462      0.63772      .   S
    C97    O462      0.63772      .   S
    C229   O463      0.63763      .   S
    C101   O463      0.63763      .   S
    C179   O464      0.63766      .   S
    C51    O464      0.63766      .   S
    C183   O465      0.63761      .   S
    C55    O465      0.63761      .   S
    C177   O466      0.63767      .   S
    C49    O466      0.63767      .   S
    C181   O467      0.63767      .   S
    C53    O467      0.63767      .   S
    C233   O468      0.62499      .   S
    C105   O468      0.62499      .   S
    C237   O469      0.62499      .   S
    C109   O469      0.62499      .   S
    C239   O470      0.62512      .   S
    C111   O470      0.62512      .   S
    C235   O471      0.62498      .   S
    C107   O471      0.62498      .   S
    C103   O472      0.72424      .   S
    C55    O472      0.72424      .   S
    C103   O473      0.73574      .   S
    C159   O473      0.73574      .   S
    C99    O474      0.72430      .   S
    C51    O474      0.72430      .   S
    C99    O475      0.73568      .   S
    C155   O475      0.73568      .   S
    C97    O476      0.72420      .   S
    C49    O476      0.72420      .   S
    C97    O477      0.73534      .   S
    C153   O477      0.73534      .   S
    C101   O478      0.72422      .   S
    C53    O478      0.72422      .   S
    C101   O479      0.73563      .   S
    C157   O479      0.73563      .   S
    C49    O480      0.73558      .   S
    C73    O480      0.73558      .   S
    C53    O481      0.73557      .   S
    C77    O481      0.73557      .   S
    C55    O482      0.73574      .   S
    C79    O482      0.73574      .   S
    C51    O483      0.73563      .   S
    C75    O483      0.73563      .   S
    C171   O484      0.62526  1_655   S
    C43    O484      0.62526      .   S
    C175   O485      0.62502      .   S
    C47    O485      0.62502      .   S
    C169   O486      0.62503  1_655   S
    C41    O486      0.62503      .   S
    C173   O487      0.62509      .   S
    C45    O487      0.62509      .   S
    C107   O488      0.74955      .   S
    C43    O488      0.74955      .   S
    C107   O489      0.73564      .   S
    C131   O489      0.73564      .   S
    C111   O490      0.74956      .   S
    C47    O490      0.74956      .   S
    C111   O491      0.73560      .   S
    C135   O491      0.73560      .   S
    C105   O492      0.74955      .   S
    C41    O492      0.74955      .   S
    C105   O493      0.73580      .   S
    C129   O493      0.73580      .   S
    C109   O494      0.74954      .   S
    C45    O494      0.74954      .   S
    C109   O495      0.73577      .   S
    C133   O495      0.73577      .   S
    C47    O496      0.73553      .   S
    C67    O496      0.73553      .   S
    C43    O497      0.73540  1_455   S
    C71    O497      0.73540      .   S
    C41    O498      0.73562  1_455   S
    C69    O498      0.73562      .   S
    C45    O499      0.73557      .   S
    C65    O499      0.73557      .   S
    C153   O500      0.74978      .   S
    C73    O500      0.74978      .   S
    C153   O501      0.62505      .   S
    C281   O501      0.62505      .   S
    C157   O502      0.74960      .   S
    C77    O502      0.74960      .   S
    C157   O503      0.62500      .   S
    C285   O503      0.62500      .   S
    C159   O504      0.74943      .   S
    C79    O504      0.74943      .   S
    C159   O505      0.62500      .   S
    C287   O505      0.62500      .   S
    C155   O506      0.74945      .   S
    C75    O506      0.74945      .   S
    C155   O507      0.62501      .   S
    C283   O507      0.62501      .   S
    C73    O508      0.62498      .   S
    C201   O508      0.62498      .   S
    C77    O509      0.62501      .   S
    C205   O509      0.62501      .   S
    C79    O510      0.62500      .   S
    C207   O510      0.62500      .   S
    C75    O511      0.62496      .   S
    C203   O511      0.62496      .   S
    C281   O512      1.15967      .   S
    C27    O512      1.15967  1_565   S
    C285   O513      1.15964      .   S
    C31    O513      1.15964  1_565   S
    C287   O514      1.16000      .   S
    C29    O514      1.16000      .   S
    C283   O515      1.16003      .   S
    C25    O515      1.16003      .   S
    C129   O516      0.72437      .   S
    C69    O516      0.72437  1_655   S
    C129   O517      0.63768      .   S
    C257   O517      0.63768      .   S
    C133   O518      0.72426      .   S
    C65    O518      0.72426      .   S
    C133   O519      0.63771      .   S
    C261   O519      0.63771      .   S
    C135   O520      0.72420      .   S
    C67    O520      0.72420      .   S
    C135   O521      0.63760      .   S
    C263   O521      0.63760      .   S
    C131   O522      0.72437      .   S
    C71    O522      0.72437  1_655   S
    C131   O523      0.63757      .   S
    C259   O523      0.63757      .   S
    C71    O524      0.63772      .   S
    C199   O524      0.63772      .   S
    C67    O525      0.63764      .   S
    C195   O525      0.63764      .   S
    C69    O526      0.63764      .   S
    C197   O526      0.63764      .   S
    C65    O527      0.63765      .   S
    C193   O527      0.63765      .   S
    C205   O528      1.15923      .   S
    C21    O528      1.15923      .   S
    C201   O529      1.15922      .   S
    C17    O529      1.15922      .   S
    C207   O530      1.15941      .   S
    C23    O530      1.15941      .   S
    C203   O531      1.15941      .   S
    C19    O531      1.15941      .   S
    C29    O532      1.16005      .   S
    C221   O532      1.16005      .   S
    C25    O533      1.15998      .   S
    C217   O533      1.15998      .   S
    C31    O534      1.15907      .   S
    C223   O534      1.15907      .   S
    C27    O535      1.15966      .   S
    C219   O535      1.15966      .   S
    C19    O536      1.15919      .   S
    C265   O536      1.15919      .   S
    C23    O537      1.15918      .   S
    C269   O537      1.15918      .   S
    C17    O538      1.15903  1_545   S
    C267   O538      1.15903      .   S
    C21    O539      1.15867  1_545   S
    C271   O539      1.15867      .   S
    C215   O540      0.63764      .   S
    C87    O540      0.63764      .   S
    C211   O541      0.63764      .   S
    C83    O541      0.63764      .   S
    C213   O542      0.63769      .   S
    C85    O542      0.63769      .   S
    C209   O543      0.63769      .   S
    C81    O543      0.63769      .   S
    C277   O544      0.63761      .   S
    C149   O544      0.63761      .   S
    C273   O545      0.63758      .   S
    C145   O545      0.63758      .   S
    C279   O546      0.63767      .   S
    C151   O546      0.63767      .   S
    C275   O547      0.63766      .   S
    C147   O547      0.63766      .   S
    C221   O548      0.62498      .   S
    C93    O548      0.62498      .   S
    C217   O549      0.62499      .   S
    C89    O549      0.62499      .   S
    C223   O550      0.62524      .   S
    C95    O550      0.62524      .   S
    C219   O551      0.62497      .   S
    C91    O551      0.62497      .   S
    C87    O552      0.72415      .   S
    C151   O552      0.72415      .   S
    C87    O553      0.73557      .   S
    C63    O553      0.73557      .   S
    C83    O554      0.72415      .   S
    C147   O554      0.72415      .   S
    C83    O555      0.73554      .   S
    C59    O555      0.73554  1_655   S
    C85    O556      0.72417      .   S
    C149   O556      0.72417      .   S
    C85    O557      0.73565      .   S
    C61    O557      0.73565      .   S
    C81    O558      0.72413      .   S
    C145   O558      0.72413      .   S
    C81    O559      0.73565      .   S
    C57    O559      0.73565  1_655   S
    C145   O560      0.73547      .   S
    C121   O560      0.73547      .   S
    C149   O561      0.73539      .   S
    C125   O561      0.73539      .   S
    C151   O562      0.73556      .   S
    C127   O562      0.73556      .   S
    C147   O563      0.73557      .   S
    C123   O563      0.73557      .   S
    C269   O564      0.62049      .   S
    C137   O564      0.62049  1_455   S
    C265   O565      0.62443      .   S
    C141   O565      0.62443      .   S
    C271   O566      0.62539      .   S
    C139   O566      0.62539  1_455   S
    C267   O567      0.62499      .   S
    C143   O567      0.62499      .   S
    C89    O568      0.75133      .   S
    C137   O568      0.75133      .   S
    C89    O569      0.73561      .   S
    C33    O569      0.73561      .   S
    C93    O570      0.74974      .   S
    C141   O570      0.74974      .   S
    C93    O571      0.73559      .   S
    C37    O571      0.73559      .   S
    C91    O572      0.74967      .   S
    C139   O572      0.74967      .   S
    C91    O573      0.73555      .   S
    C35    O573      0.73555      .   S
    C95    O574      0.74967      .   S
    C143   O574      0.74967      .   S
    C95    O575      0.73556      .   S
    C39    O575      0.73556      .   S
    C137   O576      0.74047      .   S
    C113   O576      0.74047      .   S
    C141   O577      0.73621      .   S
    C117   O577      0.73621      .   S
    C143   O578      0.73548      .   S
    C119   O578      0.73548      .   S
    C139   O579      0.73550      .   S
    C115   O579      0.73550      .   S
    C63    O580      0.74967      .   S
    C127   O580      0.74967      .   S
    C63    O581      0.62488      .   S
    C187   O581      0.62488      .   S
    C59    O582      0.74971  1_655   S
    C123   O582      0.74971      .   S
    C59    O583      0.62506      .   S
    C191   O583      0.62506      .   S
    C57    O584      0.74962  1_655   S
    C121   O584      0.74962      .   S
    C57    O585      0.62504      .   S
    C189   O585      0.62504      .   S
    C61    O586      0.74961      .   S
    C125   O586      0.74961      .   S
    C61    O587      0.62495      .   S
    C185   O587      0.62495      .   S
    C125   O588      0.62499      .   S
    C253   O588      0.62499      .   S
    C121   O589      0.62502      .   S
    C249   O589      0.62502      .   S
    C127   O590      0.62500      .   S
    C255   O590      0.62500      .   S
    C123   O591      0.62503      .   S
    C251   O591      0.62503      .   S
    C187   O592      1.15972      .   S
    C11    O592      1.15972      .   S
    C191   O593      1.15930      .   S
    C15    O593      1.15930      .   S
    C185   O594      1.15979      .   S
    C9     O594      1.15979      .   S
    C189   O595      1.15973      .   S
    C13    O595      1.15973      .   S
    C37    O596      0.72423      .   S
    C117   O596      0.72423      .   S
    C37    O597      0.63772      .   S
    C165   O597      0.63772      .   S
    C33    O598      0.72424      .   S
    C113   O598      0.72424      .   S
    C33    O599      0.63771      .   S
    C161   O599      0.63771      .   S
    C39    O600      0.72413      .   S
    C119   O600      0.72413      .   S
    C39    O601      0.63762      .   S
    C167   O601      0.63762      .   S
    C35    O602      0.72413      .   S
    C115   O602      0.72413      .   S
    C35    O603      0.63735      .   S
    C163   O603      0.63735      .   S
    C113   O604      0.63766  1_455   S
    C245   O604      0.63766      .   S
    C117   O605      0.63758      .   S
    C241   O605      0.63758      .   S
    C119   O606      0.63757      .   S
    C243   O606      0.63757      .   S
    C115   O607      0.63772  1_455   S
    C247   O607      0.63772      .   S
    C160   O608      1.26754      .   S
    C1     O608      1.26754      .   S
    C160   O609      1.16702      .   S
    C8     O609      1.16702      .   S
    C161   O610      1.26588      .   S
    C0     O610      1.26588  1_554   S
    C161   O611      1.16671      .   S
    C9     O611      1.16671      .   S
    C162   O612      1.26822      .   S
    C3     O612      1.26822      .   S
    C162   O613      1.16683      .   S
    C10    O613      1.16683      .   S
    C163   O614      1.26732      .   S
    C2     O614      1.26732  1_554   S
    C163   O615      1.16613      .   S
    C11    O615      1.16613      .   S
    C164   O616      1.26780      .   S
    C5     O616      1.26780      .   S
    C164   O617      1.16700      .   S
    C12    O617      1.16700      .   S
    C165   O618      1.26594      .   S
    C4     O618      1.26594  1_554   S
    C165   O619      1.16669      .   S
    C13    O619      1.16669      .   S
    C166   O620      1.26820      .   S
    C7     O620      1.26820      .   S
    C166   O621      1.16687      .   S
    C14    O621      1.16687      .   S
    C167   O622      1.26717      .   S
    C6     O622      1.26717  1_554   S
    C167   O623      1.16587      .   S
    C15    O623      1.16587      .   S
    C176   O624      1.16589      .   S
    C4     O624      1.16589      .   S
    C176   O625      1.26693      .   S
    C9     O625      1.26693  1_556   S
    C177   O626      1.16683      .   S
    C5     O626      1.16683      .   S
    C177   O627      1.26802      .   S
    C8     O627      1.26802      .   S
    C178   O628      1.16652      .   S
    C6     O628      1.16652      .   S
    C178   O629      1.26617      .   S
    C11    O629      1.26617  1_556   S
    C179   O630      1.16702      .   S
    C7     O630      1.16702      .   S
    C179   O631      1.26754      .   S
    C10    O631      1.26754      .   S
    C180   O632      1.16598      .   S
    C0     O632      1.16598  1_455   S
    C180   O633      1.26664      .   S
    C13    O633      1.26664  1_556   S
    C181   O634      1.16692      .   S
    C1     O634      1.16692  1_455   S
    C181   O635      1.26802      .   S
    C12    O635      1.26802      .   S
    C182   O636      1.16662      .   S
    C2     O636      1.16662  1_455   S
    C182   O637      1.26616      .   S
    C15    O637      1.26616  1_556   S
    C183   O638      1.16712      .   S
    C3     O638      1.16712  1_455   S
    C183   O639      1.26752      .   S
    C14    O639      1.26752      .   S
    C192   O640      1.26751      .   S
    C18    O640      1.26751      .   S
    C192   O641      1.16679      .   S
    C24    O641      1.16679      .   S
    C193   O642      1.26760      .   S
    C19    O642      1.26760      .   S
    C193   O643      1.16686      .   S
    C25    O643      1.16686      .   S
    C194   O644      1.26692      .   S
    C16    O644      1.26692  1_545   S
    C194   O645      1.16606      .   S
    C26    O645      1.16606      .   S
    C195   O646      1.26623      .   S
    C17    O646      1.26623  1_545   S
    C195   O647      1.16649      .   S
    C27    O647      1.16649      .   S
    C196   O648      1.26748      .   S
    C22    O648      1.26748      .   S
    C196   O649      1.16677      .   S
    C28    O649      1.16677      .   S
    C197   O650      1.26766      .   S
    C23    O650      1.26766      .   S
    C197   O651      1.16687      .   S
    C29    O651      1.16687      .   S
    C198   O652      1.26687      .   S
    C20    O652      1.26687  1_545   S
    C198   O653      1.16607      .   S
    C30    O653      1.16607      .   S
    C199   O654      1.26622      .   S
    C21    O654      1.26622  1_545   S
    C199   O655      1.16648      .   S
    C31    O655      1.16648      .   S
    C208   O656      1.16653  1_455   S
    C20    O656      1.16653      .   S
    C208   O657      1.26651      .   S
    C26    O657      1.26651  1_565   S
    C209   O658      1.16628  1_455   S
    C21    O658      1.16628      .   S
    C209   O659      1.26683      .   S
    C27    O659      1.26683  1_565   S
    C210   O660      1.16710  1_455   S
    C22    O660      1.16710      .   S
    C210   O661      1.26834      .   S
    C24    O661      1.26834      .   S
    C211   O662      1.16697  1_455   S
    C23    O662      1.16697      .   S
    C211   O663      1.26794      .   S
    C25    O663      1.26794      .   S
    C212   O664      1.16641      .   S
    C16    O664      1.16641      .   S
    C212   O665      1.26650      .   S
    C30    O665      1.26650  1_565   S
    C213   O666      1.16618      .   S
    C17    O666      1.16618      .   S
    C213   O667      1.26682      .   S
    C31    O667      1.26682  1_565   S
    C214   O668      1.16697      .   S
    C18    O668      1.16697      .   S
    C214   O669      1.26834      .   S
    C28    O669      1.26834      .   S
    C215   O670      1.16689      .   S
    C19    O670      1.16689      .   S
    C215   O671      1.26797      .   S
    C29    O671      1.26797      .   S
    C224   O672      1.16635      .   S
    C0     O672      1.16635      .   S
    C224   O673      1.26705      .   S
    C9     O673      1.26705  1_556   S
    C225   O674      1.16718      .   S
    C1     O674      1.16718      .   S
    C225   O675      1.26740      .   S
    C8     O675      1.26740      .   S
    C226   O676      1.16615      .   S
    C2     O676      1.16615      .   S
    C226   O677      1.26819      .   S
    C11    O677      1.26819  1_556   S
    C227   O678      1.16699      .   S
    C3     O678      1.16699      .   S
    C227   O679      1.26800      .   S
    C10    O679      1.26800      .   S
    C228   O680      1.16631      .   S
    C4     O680      1.16631      .   S
    C228   O681      1.26704      .   S
    C13    O681      1.26704  1_556   S
    C229   O682      1.16682      .   S
    C5     O682      1.16682      .   S
    C229   O683      1.26739      .   S
    C12    O683      1.26739      .   S
    C230   O684      1.16608      .   S
    C6     O684      1.16608      .   S
    C230   O685      1.26818      .   S
    C15    O685      1.26818  1_556   S
    C231   O686      1.16699      .   S
    C7     O686      1.16699      .   S
    C231   O687      1.26802      .   S
    C14    O687      1.26802      .   S
    C240   O688      1.26755      .   S
    C5     O688      1.26755      .   S
    C240   O689      1.16714      .   S
    C8     O689      1.16714      .   S
    C241   O690      1.26951      .   S
    C4     O690      1.26951  1_554   S
    C241   O691      1.16617      .   S
    C9     O691      1.16617      .   S
    C242   O692      1.26747      .   S
    C7     O692      1.26747      .   S
    C242   O693      1.16705      .   S
    C10    O693      1.16705      .   S
    C243   O694      1.26724      .   S
    C6     O694      1.26724  1_554   S
    C243   O695      1.16632      .   S
    C11    O695      1.16632      .   S
    C244   O696      1.26689  1_655   S
    C1     O696      1.26689      .   S
    C244   O697      1.16717      .   S
    C12    O697      1.16717      .   S
    C245   O698      1.26954  1_655   S
    C0     O698      1.26954  1_554   S
    C245   O699      1.16616      .   S
    C13    O699      1.16616      .   S
    C246   O700      1.26780  1_655   S
    C3     O700      1.26780      .   S
    C246   O701      1.16701      .   S
    C14    O701      1.16701      .   S
    C247   O702      1.26713  1_655   S
    C2     O702      1.26713  1_554   S
    C247   O703      1.16633      .   S
    C15    O703      1.16633      .   S
    C256   O704      1.26723      .   S
    C22    O704      1.26723  1_655   S
    C256   O705      1.16647      .   S
    C24    O705      1.16647      .   S
    C257   O706      1.26802      .   S
    C23    O706      1.26802  1_655   S
    C257   O707      1.16713      .   S
    C25    O707      1.16713      .   S
    C258   O708      1.26767      .   S
    C20    O708      1.26767  1_645   S
    C258   O709      1.16619      .   S
    C26    O709      1.16619      .   S
    C259   O710      1.26861      .   S
    C21    O710      1.26861  1_645   S
    C259   O711      1.16641      .   S
    C27    O711      1.16641      .   S
    C260   O712      1.26720      .   S
    C18    O712      1.26720      .   S
    C260   O713      1.16648      .   S
    C28    O713      1.16648      .   S
    C261   O714      1.26796      .   S
    C19    O714      1.26796      .   S
    C261   O715      1.16708      .   S
    C29    O715      1.16708      .   S
    C262   O716      1.26761      .   S
    C16    O716      1.26761  1_545   S
    C262   O717      1.16617      .   S
    C30    O717      1.16617      .   S
    C263   O718      1.26855      .   S
    C17    O718      1.26855  1_545   S
    C263   O719      1.16639      .   S
    C31    O719      1.16639      .   S
    C272   O720      1.16635      .   S
    C16    O720      1.16635      .   S
    C272   O721      1.26806      .   S
    C26    O721      1.26806  1_565   S
    C273   O722      1.16627      .   S
    C17    O722      1.16627      .   S
    C273   O723      1.26769      .   S
    C27    O723      1.26769  1_565   S
    C274   O724      1.16713      .   S
    C18    O724      1.16713      .   S
    C274   O725      1.26729      .   S
    C24    O725      1.26729      .   S
    C275   O726      1.16695      .   S
    C19    O726      1.16695      .   S
    C275   O727      1.26725      .   S
    C25    O727      1.26725      .   S
    C276   O728      1.16634      .   S
    C20    O728      1.16634      .   S
    C276   O729      1.26819      .   S
    C30    O729      1.26819  1_565   S
    C277   O730      1.16627      .   S
    C21    O730      1.16627      .   S
    C277   O731      1.26767      .   S
    C31    O731      1.26767  1_565   S
    C278   O732      1.16714      .   S
    C22    O732      1.16714      .   S
    C278   O733      1.26728      .   S
    C28    O733      1.26728      .   S
    C279   O734      1.16694      .   S
    C23    O734      1.16694      .   S
    C279   O735      1.26728      .   S
    C29    O735      1.26728      .   S
