# CIF file generated by openbabel 2.4.90, see http://openbabel.sf.net
data_I
_chemical_name_common ''
_cell_length_a 23.416
_cell_length_b 15.734
_cell_length_c 18.046
_cell_angle_alpha 88.64
_cell_angle_beta 89.846
_cell_angle_gamma 90.01
_space_group_name_H-M_alt 'P 1'
_space_group_name_Hall 'P 1'
loop_
    _symmetry_equiv_pos_as_xyz
    x,y,z
loop_
    _atom_site_label
    _atom_site_type_symbol
    _atom_site_fract_x
    _atom_site_fract_y
    _atom_site_fract_z
    _atom_site_occupancy
    N0      N    0.87998   0.00489   0.85519   1.000
    N1      N    0.12945   0.49931   0.36002   1.000
    N2      N    0.37997   0.00451   0.85530   1.000
    N3      N    0.37986   0.50065   0.64049   1.000
    N4      N    0.87986   0.50095   0.64034   1.000
    N5      N    0.12917   0.99474   0.14516   1.000
    N6      N    0.62924   0.99475   0.14546   1.000
    N7      N    0.62949   0.49934   0.36085   1.000
    Zr8     Zr   0.62992   0.50497   0.86105   1.000
    O9      O    0.62977   0.50255   0.01962   1.000
    O10     O    0.62973   0.50406   0.70229   1.000
    Zr11    Zr   0.12993   0.50473   0.86034   1.000
    O12     O    0.12971   0.50393   0.70153   1.000
    O13     O    0.12977   0.50234   0.01894   1.000
    Zr14    Zr   0.87910   0.49467   0.14044   1.000
    O15     O    0.87947   0.49731   0.98168   1.000
    O16     O    0.87914   0.49571   0.29916   1.000
    Zr17    Zr   0.37915   0.49467   0.14050   1.000
    O18     O    0.37916   0.49565   0.29926   1.000
    O19     O    0.37952   0.49719   0.98178   1.000
    O20     O    0.44940   0.63108   0.14157   1.000
    O21     O    0.44920   0.35813   0.14235   1.000
    O22     O    0.30896   0.35833   0.14147   1.000
    O23     O    0.30916   0.63132   0.14210   1.000
    O24     O    0.80914   0.63131   0.14213   1.000
    O25     O    0.80894   0.35834   0.14151   1.000
    O26     O    0.94936   0.63105   0.14143   1.000
    O27     O    0.94909   0.35809   0.14216   1.000
    O28     O    0.05994   0.36816   0.85864   1.000
    O29     O    0.05980   0.64122   0.85931   1.000
    O30     O    0.69998   0.64148   0.85888   1.000
    O31     O    0.70011   0.36848   0.85989   1.000
    O32     O    0.20010   0.36818   0.85942   1.000
    O33     O    0.19999   0.64118   0.85839   1.000
    O34     O    0.55994   0.36820   0.85919   1.000
    O35     O    0.55979   0.64127   0.85985   1.000
loop_
    _geom_bond_atom_site_label_1
    _geom_bond_atom_site_label_2
    _geom_bond_distance
    _geom_bond_site_symmetry_2
    _ccdc_geom_bond_type
    Zr8    O9        2.86094  1_556   S
    N7     O9        6.15686      .   S
    Zr8    O10       2.86531      .   S
    N7     O10       6.16384      .   S
    Zr11   O12       2.86627      .   S
    N1     O12       6.16510      .   S
    Zr11   O13       2.86135  1_556   S
    N1     O13       6.15418      .   S
    Zr14   O15       2.86426  1_554   S
    N4     O15       6.15872      .   S
    Zr14   O16       2.86484      .   S
    N4     O16       6.15939      .   S
    Zr17   O18       2.86540      .   S
    N3     O18       6.16031      .   S
    Zr17   O19       2.86357  1_554   S
    N3     O19       6.15782      .   S
    Zr17   O20       2.70428      .   S
    N6     O20       7.10580      .   S
    Zr17   O21       2.70280      .   S
    N6     O21       7.10342  1_565   S
    Zr17   O22       2.70195      .   S
    N5     O22       7.10121  1_565   S
    Zr17   O23       2.70426      .   S
    N5     O23       7.10529      .   S
    Zr14   O24       2.70378      .   S
    N6     O24       7.10454      .   S
    Zr14   O25       2.70145      .   S
    N6     O25       7.09977  1_565   S
    Zr14   O26       2.70408      .   S
    N5     O26       7.10554  1_455   S
    Zr14   O27       2.70247      .   S
    N5     O27       7.10366  1_465   S
    N0     O28       7.10220  1_655   S
    Zr11   O28       2.70308      .   S
    N0     O29       7.10388  1_645   S
    Zr11   O29       2.70336      .   S
    N0     O30       7.10175  1_545   S
    Zr8    O30       2.70186      .   S
    N0     O31       7.10665      .   S
    Zr8    O31       2.70488      .   S
    N2     O32       7.10729      .   S
    Zr11   O32       2.70538      .   S
    N2     O33       7.10074  1_545   S
    Zr11   O33       2.70112      .   S
    N2     O34       7.10774      .   S
    Zr8    O34       2.70565      .   S
    N2     O35       7.09845  1_545   S
    Zr8    O35       2.70105      .   S
