# CIF file generated by openbabel 2.4.90, see http://openbabel.sf.net
data_I
_chemical_name_common ''
_cell_length_a 23.416
_cell_length_b 15.734
_cell_length_c 18.046
_cell_angle_alpha 88.64
_cell_angle_beta 89.846
_cell_angle_gamma 90.01
_space_group_name_H-M_alt 'P 1'
_space_group_name_Hall 'P 1'
loop_
    _symmetry_equiv_pos_as_xyz
    x,y,z
loop_
    _atom_site_label
    _atom_site_type_symbol
    _atom_site_fract_x
    _atom_site_fract_y
    _atom_site_fract_z
    _atom_site_occupancy
    Zr0     Zr   0.12994   0.50710   0.78280   1.000
    Zr1     Zr   0.62993   0.50712   0.78374   1.000
    Zr2     Zr   0.12992   0.50237   0.93789   1.000
    Zr3     Zr   0.62992   0.50283   0.93836   1.000
    Zr4     Zr   0.37844   0.49259   0.21830   1.000
    Zr5     Zr   0.87844   0.49256   0.21826   1.000
    Zr6     Zr   0.37986   0.49676   0.06270   1.000
    Zr7     Zr   0.87976   0.49678   0.06261   1.000
    O8      O    0.12993   0.50473   0.86034   1.000
    O9      O    0.62992   0.50497   0.86105   1.000
    O10     O    0.37915   0.49467   0.14050   1.000
    O11     O    0.87910   0.49467   0.14044   1.000
    N12     N    0.87998   0.00489   0.85519   1.000
    O13     O    0.76745   0.78034   0.89113   1.000
    O14     O    0.99250   0.22722   0.89139   1.000
    O15     O    0.98691   0.77350   0.89271   1.000
    O16     O    0.77297   0.23402   0.89316   1.000
    O17     O    0.77261   0.77566   0.82227   1.000
    O18     O    0.98739   0.23596   0.82248   1.000
    O19     O    0.99242   0.78190   0.82384   1.000
    O20     O    0.76762   0.22997   0.82432   1.000
    N21     N    0.12945   0.49931   0.36002   1.000
    O22     O    0.12960   0.49994   0.17754   1.000
    O23     O    0.12950   0.50312   0.54272   1.000
    N24     N    0.37997   0.00451   0.85530   1.000
    O25     O    0.26748   0.77984   0.89095   1.000
    O26     O    0.49249   0.22715   0.89173   1.000
    O27     O    0.48690   0.77343   0.89304   1.000
    O28     O    0.27295   0.23357   0.89299   1.000
    O29     O    0.27260   0.77541   0.82194   1.000
    O30     O    0.48740   0.23571   0.82292   1.000
    O31     O    0.49241   0.78170   0.82428   1.000
    O32     O    0.26760   0.22970   0.82402   1.000
    N33     N    0.37986   0.50065   0.64049   1.000
    O34     O    0.37988   0.49971   0.82306   1.000
    O35     O    0.37916   0.49663   0.45802   1.000
    N36     N    0.87986   0.50095   0.64034   1.000
    O37     O    0.87984   0.49996   0.82292   1.000
    O38     O    0.87917   0.49676   0.45789   1.000
    N39     N    0.12917   0.99474   0.14516   1.000
    O40     O    0.01654   0.21890   0.10942   1.000
    O41     O    0.24214   0.77234   0.10923   1.000
    O42     O    0.23642   0.22606   0.10787   1.000
    O43     O    0.02254   0.76524   0.10791   1.000
    O44     O    0.02163   0.22413   0.17834   1.000
    O45     O    0.23621   0.76360   0.17815   1.000
    O46     O    0.24114   0.21790   0.17701   1.000
    O47     O    0.01668   0.76963   0.17696   1.000
    N48     N    0.62924   0.99475   0.14546   1.000
    O49     O    0.51683   0.21907   0.10970   1.000
    O50     O    0.74214   0.77236   0.10937   1.000
    O51     O    0.73638   0.22610   0.10801   1.000
    O52     O    0.52259   0.76531   0.10811   1.000
    O53     O    0.52167   0.22413   0.17871   1.000
    O54     O    0.73624   0.76355   0.17829   1.000
    O55     O    0.74116   0.21790   0.17715   1.000
    O56     O    0.51672   0.76965   0.17716   1.000
    N57     N    0.62949   0.49934   0.36085   1.000
    O58     O    0.62962   0.50014   0.17819   1.000
    O59     O    0.62953   0.50314   0.54354   1.000
loop_
    _geom_bond_atom_site_label_1
    _geom_bond_atom_site_label_2
    _geom_bond_distance
    _geom_bond_site_symmetry_2
    _ccdc_geom_bond_type
    Zr0    O8        1.39899      .   S
    Zr2    O8        1.39899      .   S
    Zr1    O9        1.39474      .   S
    Zr3    O9        1.39474      .   S
    Zr4    O10       1.40364      .   S
    Zr6    O10       1.40364      .   S
    Zr5    O11       1.40408      .   S
    Zr7    O11       1.40408      .   S
    N12    O13       4.44129  1_545   S
    Zr3    O13       5.47408      .   S
    N12    O14       4.44080      .   S
    Zr2    O14       5.47566  1_455   S
    N12    O15       4.45839  1_545   S
    Zr2    O15       5.47094  1_455   S
    N12    O16       4.45611      .   S
    Zr3    O16       5.47063      .   S
    N12    O17       4.44846  1_545   S
    Zr1    O17       5.44474      .   S
    N12    O18       4.44751      .   S
    Zr0    O18       5.44891  1_455   S
    N12    O19       4.43289  1_545   S
    Zr0    O19       5.45501  1_455   S
    N12    O20       4.43757      .   S
    Zr1    O20       5.46010      .   S
    N21    O22       3.29290      .   S
    Zr2    O22       4.32389  1_556   S
    N21    O23       3.29897      .   S
    Zr0    O23       4.33445      .   S
    N24    O25       4.44160  1_545   S
    Zr2    O25       5.47334      .   S
    N24    O26       4.44530      .   S
    Zr3    O26       5.48278      .   S
    N24    O27       4.45492  1_545   S
    Zr3    O27       5.46507      .   S
    N24    O28       4.45443      .   S
    Zr2    O28       5.46937      .   S
    N24    O29       4.44800  1_545   S
    Zr0    O29       5.44337      .   S
    N24    O30       4.44860      .   S
    Zr1    O30       5.45101      .   S
    N24    O31       4.42989  1_545   S
    Zr1    O31       5.45085      .   S
    N24    O32       4.43981      .   S
    Zr0    O32       5.46423      .   S
    N33    O34       3.29432      .   S
    Zr6    O34       4.32366  1_554   S
    N33    O35       3.29507      .   S
    Zr4    O35       4.32806      .   S
    N36    O37       3.29454      .   S
    Zr7    O37       4.32458  1_554   S
    N36    O38       3.29472      .   S
    Zr5    O38       4.32653      .   S
    N39    O40       4.44017  1_565   S
    Zr7    O40       5.47111  1_655   S
    N39    O41       4.44569      .   S
    Zr6    O41       5.48361      .   S
    N39    O42       4.45843  1_565   S
    Zr6    O42       5.46831      .   S
    N39    O43       4.45492      .   S
    Zr7    O43       5.46455  1_655   S
    N39    O44       4.45231  1_565   S
    Zr5    O44       5.45296  1_655   S
    N39    O45       4.44658      .   S
    Zr4    O45       5.44692      .   S
    N39    O46       4.43092  1_565   S
    Zr4    O46       5.45281      .   S
    N39    O47       4.43895      .   S
    Zr5    O47       5.46503  1_655   S
    N48    O49       4.43896  1_565   S
    Zr6    O49       5.47171      .   S
    N48    O50       4.44528      .   S
    Zr7    O50       5.48265      .   S
    N48    O51       4.45781  1_565   S
    Zr7    O51       5.46771      .   S
    N48    O52       4.45479      .   S
    Zr6    O52       5.46524      .   S
    N48    O53       4.45264  1_565   S
    Zr4    O53       5.45320      .   S
    N48    O54       4.44648      .   S
    Zr5    O54       5.44613      .   S
    N48    O55       4.42974  1_565   S
    Zr5    O55       5.45156      .   S
    N48    O56       4.43919      .   S
    Zr4    O56       5.46495      .   S
    N57    O58       3.29599      .   S
    Zr3    O58       4.32724  1_556   S
    N57    O59       3.29866      .   S
    Zr1    O59       4.33667      .   S
