# CIF file generated by openbabel 2.4.90, see http://openbabel.sf.net
data_I
_chemical_name_common ''
_cell_length_a 13.444
_cell_length_b 14.201
_cell_length_c 19.045
_cell_angle_alpha 90.774
_cell_angle_beta 108.294
_cell_angle_gamma 93.384
_space_group_name_H-M_alt 'P 1'
_space_group_name_Hall 'P 1'
loop_
    _symmetry_equiv_pos_as_xyz
    x,y,z
loop_
    _atom_site_label
    _atom_site_type_symbol
    _atom_site_fract_x
    _atom_site_fract_y
    _atom_site_fract_z
    _atom_site_occupancy
    N0      N    0.31718   0.28896   0.05844   1.000
    N1      N    0.17796   0.82133   0.31259   1.000
    N2      N    0.49996   0.49996   0.49998   1.000
    N3      N    0.49998   0.50000   0.99998   1.000
    N4      N    0.82201   0.17862   0.68737   1.000
    N5      N    0.23338   0.31818   0.54018   1.000
    N6      N    0.68279   0.71102   0.94151   1.000
    N7      N    0.76659   0.68179   0.45975   1.000
    Zr8     Zr   0.93087   0.46943   0.19495   1.000
    O9      O    0.03753   0.41922   0.14981   1.000
    O10     O    0.80416   0.48056   0.13515   1.000
    O11     O    0.87841   0.52194   0.27223   1.000
    O12     O    0.02198   0.41932   0.29175   1.000
    O13     O    0.00547   0.57310   0.23260   1.000
    Zr14    Zr   0.06908   0.53052   0.80500   1.000
    O15     O    0.19579   0.51941   0.86481   1.000
    O16     O    0.96242   0.58074   0.85014   1.000
    O17     O    0.99449   0.42685   0.76735   1.000
    O18     O    0.97798   0.58064   0.70819   1.000
    O19     O    0.12155   0.47801   0.72772   1.000
    Zr20    Zr   0.52311   0.11212   0.41830   1.000
    O21     O    0.47064   0.16350   0.31364   1.000
    O22     O    0.60647   0.12451   0.50155   1.000
    O23     O    0.59497   0.98892   0.42562   1.000
    O24     O    0.41518   0.03083   0.38703   1.000
    O25     O    0.50843   0.22566   0.44262   1.000
    Zr26    Zr   0.47685   0.88782   0.58160   1.000
    O27     O    0.52932   0.83645   0.68628   1.000
    O28     O    0.58479   0.96911   0.61289   1.000
    O29     O    0.40500   0.01103   0.57429   1.000
    O30     O    0.39349   0.87543   0.49837   1.000
    O31     O    0.49153   0.77426   0.55730   1.000
loop_
    _geom_bond_atom_site_label_1
    _geom_bond_atom_site_label_2
    _geom_bond_distance
    _geom_bond_site_symmetry_2
    _ccdc_geom_bond_type
    Zr8    O9        2.04497  1_655   S
    N0     O9        5.04228      .   S
    Zr8    O10       1.74430      .   S
    N3     O10       4.11948  1_556   S
    Zr8    O11       1.97580      .   S
    N7     O11       4.87060      .   S
    Zr8    O12       2.03126  1_655   S
    N5     O12       4.97487      .   S
    Zr8    O13       1.74162  1_655   S
    N1     O13       4.09837      .   S
    Zr14   O15       1.74433      .   S
    N3     O15       4.11953      .   S
    Zr14   O16       2.04497  1_455   S
    N6     O16       5.04229      .   S
    Zr14   O17       1.74158  1_455   S
    N4     O17       4.09823      .   S
    Zr14   O18       2.03146  1_455   S
    N7     O18       4.97498      .   S
    Zr14   O19       1.97587      .   S
    N5     O19       4.87086      .   S
    Zr20   O21       2.05439      .   S
    N0     O21       5.04245      .   S
    Zr20   O22       1.62934      .   S
    N4     O22       3.83887      .   S
    Zr20   O23       2.03356  1_545   S
    N7     O23       5.00914      .   S
    Zr20   O24       1.74183      .   S
    N1     O24       4.11816  1_565   S
    Zr20   O25       1.71123      .   S
    N2     O25       4.04909      .   S
    Zr26   O27       2.05461      .   S
    N6     O27       5.04279      .   S
    Zr26   O28       1.74193      .   S
    N4     O28       4.11844  1_545   S
    Zr26   O29       2.03372  1_565   S
    N5     O29       5.00941      .   S
    Zr26   O30       1.62894      .   S
    N1     O30       3.83833      .   S
    Zr26   O31       1.71119      .   S
    N2     O31       4.04885      .   S
