# CIF file generated by openbabel 2.4.90, see http://openbabel.sf.net
data_I
_chemical_name_common ''
_cell_length_a 13.444
_cell_length_b 14.201
_cell_length_c 19.045
_cell_angle_alpha 90.774
_cell_angle_beta 108.294
_cell_angle_gamma 93.384
_space_group_name_H-M_alt 'P 1'
_space_group_name_Hall 'P 1'
loop_
    _symmetry_equiv_pos_as_xyz
    x,y,z
loop_
    _atom_site_label
    _atom_site_type_symbol
    _atom_site_fract_x
    _atom_site_fract_y
    _atom_site_fract_z
    _atom_site_occupancy
    C0      C    0.93087   0.46943   0.19495   1.000
    C1      C    0.47685   0.88782   0.58160   1.000
    C2      C    0.06908   0.53052   0.80500   1.000
    C3      C    0.52311   0.11212   0.41830   1.000
    C4      C    0.17522   0.43426   0.17110   1.000
    C5      C    0.87591   0.39729   0.01125   1.000
    C6      C    0.02168   0.32196   0.95319   1.000
    C7      C    0.19179   0.35051   0.94302   1.000
    C8      C    0.47988   0.22207   0.05731   1.000
    C9      C    0.27643   0.30726   0.17803   1.000
    C10     C    0.34993   0.16319   0.24178   1.000
    C11     C    0.60694   0.28127   0.17910   1.000
    C12     C    0.67950   0.20460   0.31844   1.000
    C13     C    0.20445   0.28000   0.84408   1.000
    C14     C    0.49752   0.24385   0.81352   1.000
    C15     C    0.52844   0.26211   0.96307   1.000
    C16     C    0.05566   0.44577   0.37760   1.000
    C17     C    0.10417   0.26806   0.21447   1.000
    C18     C    0.24970   0.23207   0.34978   1.000
    C19     C    0.27633   0.60247   0.59294   1.000
    C20     C    0.18984   0.68037   0.69333   1.000
    C21     C    0.16144   0.38453   0.70400   1.000
    C22     C    0.18172   0.47803   0.48989   1.000
    C23     C    0.24794   0.18928   0.45887   1.000
    C24     C    0.31137   0.30856   0.67958   1.000
    C25     C    0.38272   0.10122   0.51405   1.000
    C26     C    0.29413   0.15504   0.70570   1.000
    C27     C    0.37109   0.97736   0.71172   1.000
    C28     C    0.82474   0.56572   0.82886   1.000
    C29     C    0.12406   0.60270   0.98870   1.000
    C30     C    0.97830   0.67804   0.04676   1.000
    C31     C    0.80818   0.64948   0.05693   1.000
    C32     C    0.52009   0.77791   0.94265   1.000
    C33     C    0.72354   0.69272   0.82190   1.000
    C34     C    0.65003   0.83679   0.75816   1.000
    C35     C    0.39303   0.71872   0.82086   1.000
    C36     C    0.32046   0.79537   0.68151   1.000
    C37     C    0.79552   0.71998   0.15588   1.000
    C38     C    0.50245   0.75613   0.18643   1.000
    C39     C    0.47153   0.73789   0.03688   1.000
    C40     C    0.94430   0.55420   0.62228   1.000
    C41     C    0.89580   0.73191   0.78549   1.000
    C42     C    0.75028   0.76791   0.65018   1.000
    C43     C    0.72362   0.39751   0.40701   1.000
    C44     C    0.81010   0.31960   0.30663   1.000
    C45     C    0.83853   0.61543   0.29556   1.000
    C46     C    0.81825   0.52194   0.51006   1.000
    C47     C    0.75204   0.81070   0.54109   1.000
    C48     C    0.68860   0.69141   0.32038   1.000
    C49     C    0.61727   0.89876   0.48591   1.000
    C50     C    0.70584   0.84493   0.29417   1.000
    C51     C    0.62887   0.02261   0.28823   1.000
    C52     C    0.11240   0.41309   0.12090   1.000
    C53     C    0.95990   0.39310   0.03569   1.000
    C54     C    0.03050   0.35549   0.00654   1.000
    C55     C    0.22278   0.32965   0.05986   1.000
    C56     C    0.24427   0.32269   0.99300   1.000
    C57     C    0.33725   0.28373   0.99221   1.000
    C58     C    0.40838   0.25377   0.05760   1.000
    C59     C    0.38546   0.26291   0.12375   1.000
    C60     C    0.29278   0.30039   0.12584   1.000
    C61     C    0.42989   0.18555   0.24541   1.000
    C62     C    0.56582   0.24455   0.21263   1.000
    C63     C    0.60011   0.20658   0.28115   1.000
    C64     C    0.28772   0.27253   0.85418   1.000
    C65     C    0.43992   0.25237   0.84180   1.000
    C66     C    0.45713   0.26043   0.91643   1.000
    C67     C    0.08814   0.39356   0.35076   1.000
    C68     C    0.11608   0.30020   0.26867   1.000
    C69     C    0.18738   0.28023   0.33490   1.000
    C70     C    0.23771   0.56950   0.62957   1.000
    C71     C    0.19596   0.60700   0.68004   1.000
    C72     C    0.18096   0.45485   0.68940   1.000
    C73     C    0.24391   0.39954   0.58870   1.000
    C74     C    0.21144   0.41145   0.51224   1.000
    C75     C    0.21354   0.33503   0.46583   1.000
    C76     C    0.25093   0.24972   0.49517   1.000
    C77     C    0.28792   0.24135   0.57176   1.000
    C78     C    0.28448   0.31577   0.61960   1.000
    C79     C    0.36767   0.08907   0.56584   1.000
    C80     C    0.32166   0.11601   0.66682   1.000
    C81     C    0.36071   0.02894   0.66910   1.000
    C82     C    0.46965   0.69481   0.54015   1.000
    C83     C    0.48653   0.59436   0.51942   1.000
    C84     C    0.52064   0.52735   0.57373   1.000
    C85     C    0.53348   0.43403   0.55489   1.000
    C86     C    0.70282   0.43367   0.09159   1.000
    C87     C    0.59821   0.46842   0.04393   1.000
    C88     C    0.52398   0.49649   0.07647   1.000
    C89     C    0.42742   0.52720   0.03308   1.000
    C90     C    0.01876   0.67441   0.22940   1.000
    C91     C    0.09723   0.75413   0.27115   1.000
    C92     C    0.18611   0.77794   0.24990   1.000
    C93     C    0.26283   0.84648   0.28973   1.000
    C94     C    0.25325   0.89317   0.35237   1.000
    C95     C    0.16240   0.87253   0.37189   1.000
    C96     C    0.08540   0.80412   0.33169   1.000
    C97     C    0.34386   0.95877   0.39988   1.000
    C98     C    0.88757   0.58689   0.87906   1.000
    C99     C    0.04007   0.60689   0.96426   1.000
    C100    C    0.96947   0.64450   0.99341   1.000
    C101    C    0.77719   0.67034   0.94010   1.000
    C102    C    0.75570   0.67730   0.00693   1.000
    C103    C    0.66272   0.71626   0.00775   1.000
    C104    C    0.59159   0.74622   0.94236   1.000
    C105    C    0.61451   0.73707   0.87620   1.000
    C106    C    0.70719   0.69960   0.87412   1.000
    C107    C    0.57008   0.81442   0.75454   1.000
    C108    C    0.43415   0.75543   0.78733   1.000
    C109    C    0.39986   0.79339   0.71880   1.000
    C110    C    0.71225   0.72745   0.14578   1.000
    C111    C    0.56005   0.74762   0.15811   1.000
    C112    C    0.54284   0.73956   0.08352   1.000
    C113    C    0.91182   0.60641   0.64919   1.000
    C114    C    0.88389   0.69977   0.73129   1.000
    C115    C    0.81260   0.71975   0.66499   1.000
    C116    C    0.76224   0.43047   0.37039   1.000
    C117    C    0.80399   0.39297   0.31991   1.000
    C118    C    0.81901   0.54511   0.31056   1.000
    C119    C    0.75606   0.60043   0.41126   1.000
    C120    C    0.78853   0.58853   0.48772   1.000
    C121    C    0.78643   0.66495   0.53413   1.000
    C122    C    0.74904   0.75025   0.50478   1.000
    C123    C    0.71206   0.75862   0.42820   1.000
    C124    C    0.71549   0.68420   0.38034   1.000
    C125    C    0.63231   0.91090   0.43412   1.000
    C126    C    0.67832   0.88396   0.33313   1.000
    C127    C    0.63926   0.97103   0.33085   1.000
    C128    C    0.53029   0.30512   0.45980   1.000
    C129    C    0.51337   0.40556   0.48055   1.000
    C130    C    0.47926   0.47257   0.42624   1.000
    C131    C    0.46642   0.56588   0.44500   1.000
    C132    C    0.29714   0.56633   0.90837   1.000
    C133    C    0.40175   0.53157   0.95604   1.000
    C134    C    0.47598   0.50350   0.92350   1.000
    C135    C    0.57254   0.47279   0.96688   1.000
    C136    C    0.98121   0.32554   0.77056   1.000
    C137    C    0.90274   0.24582   0.72883   1.000
    C138    C    0.81386   0.22200   0.75004   1.000
    C139    C    0.73715   0.15345   0.71025   1.000
    C140    C    0.74674   0.10676   0.64760   1.000
    C141    C    0.83759   0.12741   0.62809   1.000
    C142    C    0.91458   0.19582   0.66829   1.000
    C143    C    0.65612   0.04118   0.60007   1.000
    C144    C    0.54888   0.56612   0.67538   1.000
    C145    C    0.57729   0.34229   0.62883   1.000
    C146    C    0.55754   0.49240   0.18161   1.000
    C147    C    0.32839   0.56609   0.07958   1.000
    C148    C    0.96082   0.77790   0.35876   1.000
    C149    C    0.14686   0.93998   0.45525   1.000
    C150    C    0.20171   0.71367   0.16536   1.000
    C151    C    0.38602   0.87644   0.26190   1.000
    C152    C    0.45104   0.43381   0.32458   1.000
    C153    C    0.42264   0.65764   0.37114   1.000
    C154    C    0.44242   0.50758   0.81836   1.000
    C155    C    0.67158   0.43391   0.92038   1.000
    C156    C    0.03917   0.22205   0.64123   1.000
    C157    C    0.85312   0.05998   0.54472   1.000
    C158    C    0.79825   0.28627   0.83461   1.000
    C159    C    0.61395   0.12349   0.73799   1.000
    C160    C    0.01158   0.42871   0.10684   1.000
    C161    C    0.12766   0.36757   0.06155   1.000
    C162    C    0.35939   0.27394   0.92468   1.000
    C163    C    0.33418   0.25934   0.80338   1.000
    C164    C    0.45675   0.23154   0.19040   1.000
    C165    C    0.51527   0.16951   0.30074   1.000
    C166    C    0.05470   0.37107   0.27890   1.000
    C167    C    0.16917   0.34010   0.38750   1.000
    C168    C    0.22806   0.47192   0.63608   1.000
    C169    C    0.16023   0.53513   0.71641   1.000
    C170    C    0.32593   0.15391   0.60059   1.000
    C171    C    0.38894   0.01281   0.60598   1.000
    C172    C    0.98839   0.57127   0.89311   1.000
    C173    C    0.87231   0.63241   0.93841   1.000
    C174    C    0.64058   0.72604   0.07527   1.000
    C175    C    0.66579   0.74064   0.19658   1.000
    C176    C    0.54322   0.76845   0.80956   1.000
    C177    C    0.48469   0.83045   0.69921   1.000
    C178    C    0.94527   0.62889   0.72098   1.000
    C179    C    0.83080   0.65988   0.61240   1.000
    C180    C    0.77190   0.52805   0.36380   1.000
    C181    C    0.83973   0.46483   0.28355   1.000
    C182    C    0.67404   0.84607   0.39936   1.000
    C183    C    0.61103   0.98716   0.39397   1.000
    C184    C    0.77899   0.49733   0.10647   1.000
    C185    C    0.70469   0.35026   0.11110   1.000
    C186    C    0.03348   0.59502   0.26086   1.000
    C187    C    0.95098   0.69156   0.16990   1.000
    C188    C    0.54801   0.75509   0.55046   1.000
    C189    C    0.38206   0.71180   0.54600   1.000
    C190    C    0.34995   0.04337   0.37959   1.000
    C191    C    0.40776   0.92174   0.45378   1.000
    C192    C    0.22097   0.50267   0.89349   1.000
    C193    C    0.29528   0.64974   0.88880   1.000
    C194    C    0.96649   0.40492   0.73908   1.000
    C195    C    0.04897   0.30844   0.83008   1.000
    C196    C    0.45198   0.24479   0.44953   1.000
    C197    C    0.61788   0.28819   0.45394   1.000
    C198    C    0.65001   0.95656   0.62034   1.000
    C199    C    0.59224   0.07825   0.54619   1.000
    O200    O    0.99520   0.37429   0.02111   1.000
    O201    O    0.07908   0.36153   0.03404   1.000
    O202    O    0.02609   0.33872   0.97986   1.000
    O203    O    0.70921   0.69678   0.00734   1.000
    O204    O    0.78194   0.66339   0.03193   1.000
    O205    O    0.76645   0.67382   0.97352   1.000
    O206    O    0.65165   0.72115   0.04151   1.000
    O207    O    0.62715   0.73124   0.97506   1.000
    O208    O    0.91791   0.39519   0.02347   1.000
    O209    O    0.47570   0.51185   0.05477   1.000
    O210    O    0.37790   0.54665   0.05633   1.000
    O211    O    0.41458   0.52939   0.99456   1.000
    O212    O    0.98574   0.41090   0.07126   1.000
    O213    O    0.50719   0.73872   0.06020   1.000
    O214    O    0.56110   0.48246   0.06020   1.000
    O215    O    0.65052   0.45105   0.06776   1.000
    O216    O    0.58538   0.47061   0.00541   1.000
    O217    O    0.97388   0.66127   0.02008   1.000
    O218    O    0.44413   0.23792   0.05745   1.000
    O219    O    0.39692   0.25834   0.09067   1.000
    O220    O    0.37282   0.26875   0.02491   1.000
    O221    O    0.17522   0.34861   0.06070   1.000
    O222    O    0.25778   0.31502   0.09285   1.000
    O223    O    0.23353   0.32617   0.02643   1.000
    O224    O    0.12003   0.39033   0.09122   1.000
    O225    O    0.59171   0.73280   0.07939   1.000
    O226    O    0.67641   0.72675   0.11052   1.000
    O227    O    0.54076   0.49445   0.12904   1.000
    O228    O    0.55145   0.74359   0.12081   1.000
    O229    O    0.74091   0.46550   0.09903   1.000
    O230    O    0.70376   0.39197   0.10134   1.000
    O231    O    0.85493   0.48338   0.15071   1.000
    O232    O    0.06199   0.42090   0.11387   1.000
    O233    O    0.97122   0.44907   0.15089   1.000
    O234    O    0.14381   0.42368   0.14600   1.000
    O235    O    0.33912   0.28165   0.12479   1.000
    O236    O    0.42110   0.24723   0.15707   1.000
    O237    O    0.28460   0.30382   0.15193   1.000
    O238    O    0.75389   0.72372   0.15083   1.000
    O239    O    0.68902   0.73405   0.17118   1.000
    O240    O    0.53125   0.75188   0.17227   1.000
    O241    O    0.61292   0.74413   0.17735   1.000
    O242    O    0.19391   0.74580   0.20763   1.000
    O243    O    0.98487   0.68299   0.19965   1.000
    O244    O    0.58638   0.26291   0.19586   1.000
    O245    O    0.51128   0.23804   0.20151   1.000
    O246    O    0.44332   0.20855   0.21790   1.000
    O247    O    0.98217   0.53222   0.22790   1.000
    O248    O    0.99278   0.42025   0.23692   1.000
    O249    O    0.88530   0.46713   0.23925   1.000
    O250    O    0.58296   0.22557   0.24689   1.000
    O251    O    0.11013   0.28413   0.24157   1.000
    O252    O    0.02612   0.63471   0.24513   1.000
    O253    O    0.05800   0.71427   0.25028   1.000
    O254    O    0.38991   0.17437   0.24360   1.000
    O255    O    0.47258   0.17753   0.27308   1.000
    O256    O    0.14167   0.76603   0.26052   1.000
    O257    O    0.22447   0.81221   0.26981   1.000
    O258    O    0.32442   0.86146   0.27581   1.000
    O259    O    0.08539   0.33563   0.27379   1.000
    O260    O    0.15173   0.29021   0.30179   1.000
    O261    O    0.09132   0.77912   0.30142   1.000
    O262    O    0.07142   0.38231   0.31483   1.000
    O263    O    0.55769   0.18805   0.29095   1.000
    O264    O    0.63980   0.20559   0.29979   1.000
    O265    O    0.82937   0.50497   0.29705   1.000
    O266    O    0.82186   0.42890   0.30173   1.000
    O267    O    0.63407   0.99682   0.30954   1.000
    O268    O    0.25804   0.86983   0.32105   1.000
    O269    O    0.69208   0.86444   0.31365   1.000
    O270    O    0.82877   0.58027   0.30306   1.000
    O271    O    0.51919   0.14082   0.35952   1.000
    O272    O    0.80705   0.35628   0.31327   1.000
    O273    O    0.79546   0.53658   0.33718   1.000
    O274    O    0.78312   0.41172   0.34515   1.000
    O275    O    0.70204   0.68781   0.35036   1.000
    O276    O    0.46515   0.45319   0.37541   1.000
    O277    O    0.65879   0.92749   0.33199   1.000
    O278    O    0.62515   0.97910   0.36241   1.000
    O279    O    0.02311   0.79101   0.34522   1.000
    O280    O    0.12390   0.83833   0.35179   1.000
    O281    O    0.67618   0.86501   0.36624   1.000
    O282    O    0.21854   0.25615   0.34234   1.000
    O283    O    0.17827   0.31016   0.36120   1.000
    O284    O    0.07190   0.41966   0.36418   1.000
    O285    O    0.12866   0.36683   0.36913   1.000
    O286    O    0.20782   0.88285   0.36213   1.000
    O287    O    0.29856   0.92597   0.37612   1.000
    O288    O    0.76707   0.47926   0.36710   1.000
    O289    O    0.76398   0.56424   0.38753   1.000
    O290    O    0.74293   0.41399   0.38870   1.000
    O291    O    0.44453   0.61176   0.40807   1.000
    O292    O    0.15463   0.90626   0.41357   1.000
    O293    O    0.34691   0.00107   0.38973   1.000
    O294    O    0.43653   0.07775   0.39894   1.000
    O295    O    0.73577   0.64232   0.39580   1.000
    O296    O    0.71377   0.72141   0.40427   1.000
    O297    O    0.19135   0.33756   0.42667   1.000
    O298    O    0.56707   0.04964   0.40613   1.000
    O299    O    0.62167   0.94903   0.41404   1.000
    O300    O    0.69305   0.80234   0.41378   1.000
    O301    O    0.65318   0.87848   0.41674   1.000
    O302    O    0.37581   0.94026   0.42683   1.000
    O303    O    0.77229   0.59448   0.44949   1.000
    O304    O    0.48754   0.17846   0.43391   1.000
    O305    O    0.55767   0.09518   0.48224   1.000
    O306    O    0.47284   0.51923   0.43562   1.000
    O307    O    0.49631   0.43907   0.45339   1.000
    O308    O    0.73055   0.75444   0.46649   1.000
    O309    O    0.62479   0.90483   0.46002   1.000
    O310    O    0.47647   0.58012   0.48221   1.000
    O311    O    0.49114   0.27496   0.45466   1.000
    O312    O    0.44231   0.90478   0.51769   1.000
    O313    O    0.57409   0.29665   0.45687   1.000
    O314    O    0.24943   0.21950   0.47702   1.000
    O315    O    0.52183   0.35534   0.47017   1.000
    O316    O    0.23224   0.29238   0.48050   1.000
    O317    O    0.21249   0.37324   0.48903   1.000
    O318    O    0.52343   0.41980   0.51772   1.000
    O319    O    0.80339   0.55523   0.49889   1.000
    O320    O    0.78748   0.62674   0.51092   1.000
    O321    O    0.19658   0.44474   0.50106   1.000
    O322    O    0.26943   0.24554   0.53346   1.000
    O323    O    0.76774   0.70760   0.51945   1.000
    O324    O    0.75054   0.78048   0.52293   1.000
    O325    O    0.22768   0.40550   0.55047   1.000
    O326    O    0.37519   0.09515   0.53994   1.000
    O327    O    0.47809   0.64458   0.52978   1.000
    O328    O    0.50359   0.56085   0.54657   1.000
    O329    O    0.80862   0.66241   0.57327   1.000
    O330    O    0.42586   0.70331   0.54307   1.000
    O331    O    0.50883   0.72495   0.54530   1.000
    O332    O    0.84536   0.09369   0.58640   1.000
    O333    O    0.62418   0.05971   0.57313   1.000
    O334    O    0.51243   0.82145   0.56603   1.000
    O335    O    0.52706   0.48069   0.56431   1.000
    O336    O    0.55539   0.38816   0.59186   1.000
    O337    O    0.34680   0.12149   0.58321   1.000
    O338    O    0.37831   0.05094   0.58591   1.000
    O339    O    0.30692   0.19763   0.58617   1.000
    O340    O    0.28620   0.27856   0.59568   1.000
    O341    O    0.53476   0.54673   0.62455   1.000
    O342    O    0.43290   0.95031   0.59379   1.000
    O343    O    0.56343   0.92219   0.60097   1.000
    O344    O    0.48077   0.85913   0.64040   1.000
    O345    O    0.26420   0.35766   0.60415   1.000
    O346    O    0.23599   0.43573   0.61239   1.000
    O347    O    0.25702   0.58598   0.61125   1.000
    O348    O    0.65306   0.99887   0.61020   1.000
    O349    O    0.70143   0.07397   0.62383   1.000
    O350    O    0.32379   0.13496   0.63370   1.000
    O351    O    0.37482   0.02087   0.63754   1.000
    O352    O    0.87131   0.63314   0.63079   1.000
    O353    O    0.82170   0.68981   0.63870   1.000
    O354    O    0.29793   0.31217   0.64959   1.000
    O355    O    0.92806   0.58031   0.63574   1.000
    O356    O    0.79216   0.11708   0.63784   1.000
    O357    O    0.87609   0.16161   0.64819   1.000
    O358    O    0.23289   0.52071   0.63282   1.000
    O359    O    0.21684   0.58825   0.65480   1.000
    O360    O    0.20451   0.46338   0.66274   1.000
    O361    O    0.97688   0.20893   0.65476   1.000
    O362    O    0.74195   0.13011   0.67892   1.000
    O363    O    0.92855   0.61765   0.68508   1.000
    O364    O    0.78144   0.74383   0.65758   1.000
    O365    O    0.84824   0.70976   0.69814   1.000
    O366    O    0.34118   0.07248   0.66796   1.000
    O367    O    0.30789   0.13553   0.68626   1.000
    O368    O    0.90866   0.22082   0.69856   1.000
    O369    O    0.36590   0.00315   0.69041   1.000
    O370    O    0.19290   0.64368   0.68668   1.000
    O371    O    0.17810   0.57107   0.69822   1.000
    O372    O    0.36016   0.79438   0.70015   1.000
    O373    O    0.17120   0.41969   0.69670   1.000
    O374    O    0.17060   0.49499   0.70290   1.000
    O375    O    0.44228   0.81192   0.70900   1.000
    O376    O    0.52739   0.82244   0.72687   1.000
    O377    O    0.67555   0.13847   0.72412   1.000
    O378    O    0.77551   0.18773   0.73015   1.000
    O379    O    0.11466   0.53283   0.76070   1.000
    O380    O    0.41700   0.77441   0.75306   1.000
    O381    O    0.91458   0.66434   0.72613   1.000
    O382    O    0.00717   0.57971   0.76299   1.000
    O383    O    0.85830   0.23391   0.73943   1.000
    O384    O    0.94197   0.28568   0.74970   1.000
    O385    O    0.88985   0.71584   0.75839   1.000
    O386    O    0.97385   0.36523   0.75482   1.000
    O387    O    0.01778   0.46772   0.77204   1.000
    O388    O    0.80605   0.25414   0.79232   1.000
    O389    O    0.61006   0.82560   0.75635   1.000
    O390    O    0.55665   0.79143   0.78205   1.000
    O391    O    0.01509   0.31699   0.80032   1.000
    O392    O    0.48868   0.76194   0.79844   1.000
    O393    O    0.41359   0.73708   0.80409   1.000
    O394    O    0.38705   0.25585   0.82259   1.000
    O395    O    0.31095   0.26593   0.82878   1.000
    O396    O    0.02873   0.55089   0.84905   1.000
    O397    O    0.14503   0.51659   0.84924   1.000
    O398    O    0.57887   0.75276   0.84288   1.000
    O399    O    0.46871   0.24811   0.82766   1.000
    O400    O    0.45920   0.50554   0.87093   1.000
    O401    O    0.71536   0.69616   0.84801   1.000
    O402    O    0.85615   0.57630   0.85396   1.000
    O403    O    0.44852   0.25640   0.87911   1.000
    O404    O    0.24608   0.27627   0.84913   1.000
    O405    O    0.32355   0.27324   0.88943   1.000
    O406    O    0.66085   0.71834   0.87516   1.000
    O407    O    0.74219   0.68497   0.90711   1.000
    O408    O    0.60305   0.74165   0.90928   1.000
    O409    O    0.93798   0.57908   0.88608   1.000
    O410    O    0.87994   0.60965   0.90873   1.000
    O411    O    0.29621   0.60803   0.89858   1.000
    O412    O    0.01423   0.58908   0.92868   1.000
    O413    O    0.25905   0.53450   0.90093   1.000
    O414    O    0.34945   0.54895   0.93220   1.000
    O415    O    0.40826   0.26719   0.92056   1.000
    O416    O    0.49278   0.26127   0.93975   1.000
    O417    O    0.62206   0.45335   0.94363   1.000
    O418    O    0.43887   0.51754   0.93977   1.000
    O419    O    0.52426   0.48815   0.94519   1.000
    O420    O    0.34832   0.27884   0.95844   1.000
    O421    O    0.82475   0.65138   0.93925   1.000
    O422    O    0.92089   0.63846   0.96591   1.000
    O423    O    0.55584   0.76207   0.94250   1.000
    O424    O    0.21803   0.33660   0.96801   1.000
    O425    O    0.08206   0.60479   0.97648   1.000
    O426    O    0.00477   0.62569   0.97883   1.000
    O427    O    0.29076   0.30321   0.99260   1.000
loop_
    _geom_bond_atom_site_label_1
    _geom_bond_atom_site_label_2
    _geom_bond_distance
    _geom_bond_site_symmetry_2
    _ccdc_geom_bond_type
    C54    O200      0.68502  1_455   S
    C53    O200      0.68502      .   S
    C54    O201      0.69691      .   S
    C161   O201      0.69691      .   S
    C54    O202      0.54263  1_554   S
    C6     O202      0.54263      .   S
    C102   O203      0.70050      .   S
    C103   O203      0.70050      .   S
    C102   O204      0.54359      .   S
    C31    O204      0.54359      .   S
    C102   O205      0.69712  1_554   S
    C101   O205      0.69712      .   S
    C103   O206      0.70743      .   S
    C174   O206      0.70743      .   S
    C103   O207      0.70019  1_554   S
    C104   O207      0.70019      .   S
    C5     O208      0.54171      .   S
    C53    O208      0.54171      .   S
    C89    O209      0.70029      .   S
    C88    O209      0.70029      .   S
    C89    O210      0.95858      .   S
    C147   O210      0.95858      .   S
    C89    O211      0.70050  1_554   S
    C133   O211      0.70050      .   S
    C53    O212      0.69347      .   S
    C160   O212      0.69347  1_455   S
    C39    O213      0.54102      .   S
    C112   O213      0.54102      .   S
    C87    O214      0.70129      .   S
    C88    O214      0.70129      .   S
    C87    O215      0.76455      .   S
    C86    O215      0.76455      .   S
    C87    O216      0.70060      .   S
    C135   O216      0.70060  1_556   S
    C30    O217      0.54264      .   S
    C100   O217      0.54264  1_556   S
    C8     O218      0.54332      .   S
    C58    O218      0.54332      .   S
    C58    O219      0.69698      .   S
    C59    O219      0.69698      .   S
    C58    O220      0.70020      .   S
    C57    O220      0.70020  1_556   S
    C55    O221      0.71297      .   S
    C161   O221      0.71297      .   S
    C55    O222      0.69914      .   S
    C60    O222      0.69914      .   S
    C55    O223      0.69739      .   S
    C56    O223      0.69739  1_556   S
    C161   O224      0.68539      .   S
    C52    O224      0.68539      .   S
    C174   O225      0.69759      .   S
    C112   O225      0.69759      .   S
    C174   O226      0.69226      .   S
    C110   O226      0.69226      .   S
    C88    O227      0.95598      .   S
    C146   O227      0.95598      .   S
    C112   O228      0.68388      .   S
    C111   O228      0.68388      .   S
    C86    O229      0.64185      .   S
    C184   O229      0.64185      .   S
    C86    O230      0.62275      .   S
    C185   O230      0.62275      .   S
    C184   O231      1.13129      .   S
    C0     O231      1.13129      .   S
    C160   O232      0.66471      .   S
    C52    O232      0.66471      .   S
    C160   O233      1.17456  1_455   S
    C0     O233      1.17456      .   S
    C52    O234      0.54155      .   S
    C4     O234      0.54155      .   S
    C59    O235      0.69748      .   S
    C60    O235      0.69748      .   S
    C59    O236      0.71245      .   S
    C164   O236      0.71245      .   S
    C60    O237      0.54381      .   S
    C9     O237      0.54381      .   S
    C110   O238      0.54334      .   S
    C37    O238      0.54334      .   S
    C110   O239      0.66138      .   S
    C175   O239      0.66138      .   S
    C111   O240      0.54237      .   S
    C38    O240      0.54237      .   S
    C111   O241      0.69498      .   S
    C175   O241      0.69498      .   S
    C150   O242      0.95709      .   S
    C92    O242      0.95709      .   S
    C187   O243      0.62431      .   S
    C90    O243      0.62431  1_455   S
    C11    O244      0.54356      .   S
    C62    O244      0.54356      .   S
    C164   O245      0.69637      .   S
    C62    O245      0.69637      .   S
    C164   O246      0.68603      .   S
    C61    O246      0.68603      .   S
    C0     O247      1.14251      .   S
    C186   O247      1.14251  1_455   S
    C0     O248      1.21885      .   S
    C166   O248      1.21885  1_455   S
    C0     O249      1.18790      .   S
    C181   O249      1.18790      .   S
    C62    O250      0.68501      .   S
    C63    O250      0.68501      .   S
    C17    O251      0.54184      .   S
    C68    O251      0.54184      .   S
    C90    O252      0.64024      .   S
    C186   O252      0.64024      .   S
    C90    O253      0.76400      .   S
    C91    O253      0.76400      .   S
    C10    O254      0.54168      .   S
    C61    O254      0.54168      .   S
    C61    O255      0.66291      .   S
    C165   O255      0.66291      .   S
    C92    O256      0.70098      .   S
    C91    O256      0.70098      .   S
    C92    O257      0.69946      .   S
    C93    O257      0.69946      .   S
    C151   O258      0.95905      .   S
    C93    O258      0.95905      .   S
    C68    O259      0.69384      .   S
    C166   O259      0.69384      .   S
    C68    O260      0.68429      .   S
    C69    O260      0.68429      .   S
    C91    O261      0.70094      .   S
    C96    O261      0.70094      .   S
    C166   O262      0.66371      .   S
    C67    O262      0.66371      .   S
    C63    O263      0.69260      .   S
    C165   O263      0.69260      .   S
    C63    O264      0.54144      .   S
    C12    O264      0.54144      .   S
    C181   O265      0.66211      .   S
    C118   O265      0.66211      .   S
    C181   O266      0.69317      .   S
    C117   O266      0.69317      .   S
    C51    O267      0.54126  1_545   S
    C127   O267      0.54126      .   S
    C93    O268      0.70081      .   S
    C94    O268      0.70081      .   S
    C50    O269      0.54320      .   S
    C126   O269      0.54320      .   S
    C45    O270      0.54121      .   S
    C118   O270      0.54121      .   S
    C165   O271      1.18317      .   S
    C3     O271      1.18317      .   S
    C44    O272      0.54139      .   S
    C117   O272      0.54139      .   S
    C118   O273      0.68547      .   S
    C180   O273      0.68547      .   S
    C117   O274      0.68616      .   S
    C116   O274      0.68616      .   S
    C48    O275      0.54625      .   S
    C124   O275      0.54625      .   S
    C152   O276      0.95928      .   S
    C130   O276      0.95928      .   S
    C127   O277      0.68376      .   S
    C126   O277      0.68376      .   S
    C127   O278      0.69479      .   S
    C183   O278      0.69479      .   S
    C96    O279      0.95957      .   S
    C148   O279      0.95957  1_655   S
    C96    O280      0.70093      .   S
    C95    O280      0.70093      .   S
    C126   O281      0.69714      .   S
    C182   O281      0.69714      .   S
    C69    O282      0.54168      .   S
    C18    O282      0.54168      .   S
    C69    O283      0.69675      .   S
    C167   O283      0.69675      .   S
    C67    O284      0.54080      .   S
    C16    O284      0.54080      .   S
    C67    O285      0.68667      .   S
    C167   O285      0.68667      .   S
    C94    O286      0.70029      .   S
    C95    O286      0.70029      .   S
    C94    O287      0.76191      .   S
    C97    O287      0.76191      .   S
    C180   O288      0.69759      .   S
    C116   O288      0.69759      .   S
    C180   O289      0.71421      .   S
    C119   O289      0.71421      .   S
    C116   O290      0.54375      .   S
    C43    O290      0.54375      .   S
    C153   O291      0.95437      .   S
    C131   O291      0.95437      .   S
    C95    O292      0.95813      .   S
    C149   O292      0.95813      .   S
    C190   O293      0.63645      .   S
    C97    O293      0.63645  1_565   S
    C190   O294      1.17802      .   S
    C3     O294      1.17802      .   S
    C124   O295      0.69884      .   S
    C119   O295      0.69884      .   S
    C124   O296      0.69926      .   S
    C123   O296      0.69926      .   S
    C167   O297      0.71340      .   S
    C75    O297      0.71340      .   S
    C183   O298      1.15435  1_565   S
    C3     O298      1.15435      .   S
    C183   O299      0.66355      .   S
    C125   O299      0.66355      .   S
    C182   O300      0.71100      .   S
    C123   O300      0.71100      .   S
    C182   O301      0.68526      .   S
    C125   O301      0.68526      .   S
    C97    O302      0.62898      .   S
    C191   O302      0.62898      .   S
    C119   O303      0.69926      .   S
    C120   O303      0.69926      .   S
    C3     O304      1.15732      .   S
    C196   O304      1.15732      .   S
    C3     O305      1.19278      .   S
    C199   O305      1.19278      .   S
    C130   O306      0.70116      .   S
    C131   O306      0.70116      .   S
    C130   O307      0.70107      .   S
    C129   O307      0.70107      .   S
    C123   O308      0.69729      .   S
    C122   O308      0.69729      .   S
    C125   O309      0.54066      .   S
    C49    O309      0.54066      .   S
    C131   O310      0.70293      .   S
    C83    O310      0.70293      .   S
    C196   O311      0.64039      .   S
    C128   O311      0.64039      .   S
    C191   O312      1.19226      .   S
    C1     O312      1.19226      .   S
    C197   O313      0.62690      .   S
    C128   O313      0.62690      .   S
    C23    O314      0.54287      .   S
    C76    O314      0.54287      .   S
    C128   O315      0.76192      .   S
    C129   O315      0.76192      .   S
    C75    O316      0.69755      .   S
    C76    O316      0.69755      .   S
    C75    O317      0.69877      .   S
    C74    O317      0.69877      .   S
    C129   O318      0.70221      .   S
    C85    O318      0.70221      .   S
    C120   O319      0.54395      .   S
    C46    O319      0.54395      .   S
    C120   O320      0.69877      .   S
    C121   O320      0.69877      .   S
    C22    O321      0.54399      .   S
    C74    O321      0.54399      .   S
    C76    O322      0.69739      .   S
    C77    O322      0.69739      .   S
    C122   O323      0.69758      .   S
    C121   O323      0.69758      .   S
    C122   O324      0.54293      .   S
    C47    O324      0.54293      .   S
    C74    O325      0.69927      .   S
    C73    O325      0.69927      .   S
    C25    O326      0.54069      .   S
    C79    O326      0.54069      .   S
    C83    O327      0.76185      .   S
    C82    O327      0.76185      .   S
    C83    O328      0.70106      .   S
    C84    O328      0.70106      .   S
    C121   O329      0.71288      .   S
    C179   O329      0.71288      .   S
    C82    O330      0.62698      .   S
    C189   O330      0.62698      .   S
    C82    O331      0.64035      .   S
    C188   O331      0.64035      .   S
    C157   O332      0.95816      .   S
    C141   O332      0.95816      .   S
    C199   O333      0.62895      .   S
    C143   O333      0.62895      .   S
    C188   O334      1.15743      .   S
    C1     O334      1.15743      .   S
    C85    O335      0.70138      .   S
    C84    O335      0.70138      .   S
    C85    O336      0.95484      .   S
    C145   O336      0.95484      .   S
    C79    O337      0.68522      .   S
    C170   O337      0.68522      .   S
    C79    O338      0.66351      .   S
    C171   O338      0.66351      .   S
    C77    O339      0.71098      .   S
    C170   O339      0.71098      .   S
    C77    O340      0.69915      .   S
    C78    O340      0.69915      .   S
    C84    O341      0.95919      .   S
    C144   O341      0.95919      .   S
    C1     O342      1.15465      .   S
    C171   O342      1.15465  1_545   S
    C1     O343      1.17802      .   S
    C198   O343      1.17802      .   S
    C1     O344      1.18353      .   S
    C177   O344      1.18353      .   S
    C73    O345      0.69879      .   S
    C78    O345      0.69879      .   S
    C73    O346      0.71369      .   S
    C168   O346      0.71369      .   S
    C19    O347      0.54381      .   S
    C70    O347      0.54381      .   S
    C143   O348      0.63648  1_545   S
    C198   O348      0.63648      .   S
    C143   O349      0.76192      .   S
    C140   O349      0.76192      .   S
    C170   O350      0.69716      .   S
    C80    O350      0.69716      .   S
    C171   O351      0.69481      .   S
    C81    O351      0.69481      .   S
    C179   O352      0.68681      .   S
    C113   O352      0.68681      .   S
    C179   O353      0.69667      .   S
    C115   O353      0.69667      .   S
    C78    O354      0.54643      .   S
    C24    O354      0.54643      .   S
    C40    O355      0.54117      .   S
    C113   O355      0.54117      .   S
    C141   O356      0.70025      .   S
    C140   O356      0.70025      .   S
    C141   O357      0.70092      .   S
    C142   O357      0.70092      .   S
    C70    O358      0.69749      .   S
    C168   O358      0.69749      .   S
    C70    O359      0.68608      .   S
    C71    O359      0.68608      .   S
    C168   O360      0.68614      .   S
    C72    O360      0.68614      .   S
    C156   O361      0.95955  1_455   S
    C142   O361      0.95955      .   S
    C140   O362      0.70091      .   S
    C139   O362      0.70091      .   S
    C113   O363      0.66310      .   S
    C178   O363      0.66310      .   S
    C42    O364      0.54167      .   S
    C115   O364      0.54167      .   S
    C115   O365      0.68475      .   S
    C114   O365      0.68475      .   S
    C80    O366      0.68376      .   S
    C81    O366      0.68376      .   S
    C80    O367      0.54261      .   S
    C26    O367      0.54261      .   S
    C142   O368      0.70095      .   S
    C137   O368      0.70095      .   S
    C81    O369      0.54127      .   S
    C27    O369      0.54127  1_565   S
    C71    O370      0.54141      .   S
    C20    O370      0.54141      .   S
    C71    O371      0.69322      .   S
    C169   O371      0.69322      .   S
    C36    O372      0.54144      .   S
    C109   O372      0.54144      .   S
    C72    O373      0.53988      .   S
    C21    O373      0.53988      .   S
    C72    O374      0.66211      .   S
    C169   O374      0.66211      .   S
    C177   O375      0.69257      .   S
    C109   O375      0.69257      .   S
    C177   O376      0.66291      .   S
    C107   O376      0.66291      .   S
    C139   O377      0.95862      .   S
    C159   O377      0.95862      .   S
    C139   O378      0.69935      .   S
    C138   O378      0.69935      .   S
    C169   O379      1.18788      .   S
    C2     O379      1.18788      .   S
    C109   O380      0.68506      .   S
    C108   O380      0.68506      .   S
    C178   O381      0.69408      .   S
    C114   O381      0.69408      .   S
    C178   O382      1.21917  1_655   S
    C2     O382      1.21917      .   S
    C137   O383      0.70079      .   S
    C138   O383      0.70079      .   S
    C137   O384      0.76399      .   S
    C136   O384      0.76399      .   S
    C114   O385      0.54183      .   S
    C41    O385      0.54183      .   S
    C194   O386      0.64020      .   S
    C136   O386      0.64020      .   S
    C194   O387      1.14257  1_655   S
    C2     O387      1.14257      .   S
    C138   O388      0.95740      .   S
    C158   O388      0.95740      .   S
    C107   O389      0.54170      .   S
    C34    O389      0.54170      .   S
    C107   O390      0.68607      .   S
    C176   O390      0.68607      .   S
    C136   O391      0.62433  1_655   S
    C195   O391      0.62433      .   S
    C108   O392      0.69637      .   S
    C176   O392      0.69637      .   S
    C108   O393      0.54353      .   S
    C35    O393      0.54353      .   S
    C163   O394      0.69489      .   S
    C65    O394      0.69489      .   S
    C163   O395      0.66137      .   S
    C64    O395      0.66137      .   S
    C2     O396      1.17455      .   S
    C172   O396      1.17455  1_655   S
    C2     O397      1.13131      .   S
    C192   O397      1.13131      .   S
    C176   O398      0.71238      .   S
    C105   O398      0.71238      .   S
    C14    O399      0.54210      .   S
    C65    O399      0.54210      .   S
    C154   O400      0.95597      .   S
    C134   O400      0.95597      .   S
    C33    O401      0.54409      .   S
    C106   O401      0.54409      .   S
    C28    O402      0.54156      .   S
    C98    O402      0.54156      .   S
    C65    O403      0.68426      .   S
    C66    O403      0.68426      .   S
    C13    O404      0.54333      .   S
    C64    O404      0.54333      .   S
    C64    O405      0.69219      .   S
    C162   O405      0.69219      .   S
    C106   O406      0.69744      .   S
    C105   O406      0.69744      .   S
    C106   O407      0.69914      .   S
    C101   O407      0.69914      .   S
    C105   O408      0.69707      .   S
    C104   O408      0.69707      .   S
    C98    O409      0.66472      .   S
    C172   O409      0.66472      .   S
    C98    O410      0.68540      .   S
    C173   O410      0.68540      .   S
    C193   O411      0.62293      .   S
    C132   O411      0.62293      .   S
    C172   O412      0.69349  1_655   S
    C99    O412      0.69349      .   S
    C192   O413      0.64185      .   S
    C132   O413      0.64185      .   S
    C132   O414      0.76458      .   S
    C133   O414      0.76458      .   S
    C66    O415      0.69759      .   S
    C162   O415      0.69759      .   S
    C66    O416      0.54102      .   S
    C15    O416      0.54102      .   S
    C155   O417      0.95859      .   S
    C135   O417      0.95859      .   S
    C134   O418      0.70129      .   S
    C133   O418      0.70129      .   S
    C134   O419      0.70026      .   S
    C135   O419      0.70026      .   S
    C162   O420      0.70752      .   S
    C57    O420      0.70752      .   S
    C173   O421      0.71297      .   S
    C101   O421      0.71297      .   S
    C173   O422      0.69687      .   S
    C100   O422      0.69687      .   S
    C104   O423      0.54331      .   S
    C32    O423      0.54331      .   S
    C7     O424      0.54346      .   S
    C56    O424      0.54346      .   S
    C99    O425      0.54172      .   S
    C29    O425      0.54172      .   S
    C99    O426      0.68502      .   S
    C100   O426      0.68502  1_655   S
    C57    O427      0.70041      .   S
    C56    O427      0.70041      .   S
