# CIF file generated by openbabel 2.4.90, see http://openbabel.sf.net
data_I
_chemical_name_common 'LaH6(C2O3)3'
_cell_length_a 6.1945
_cell_length_b 7.7725
_cell_length_c 13.351
_cell_angle_alpha 104.87
_cell_angle_beta 95.281
_cell_angle_gamma 90.019
_space_group_name_H-M_alt 'P 1'
_space_group_name_Hall 'P 1'
loop_
    _symmetry_equiv_pos_as_xyz
    x,y,z
loop_
    _atom_site_label
    _atom_site_type_symbol
    _atom_site_fract_x
    _atom_site_fract_y
    _atom_site_fract_z
    _atom_site_occupancy
    La0     La   0.58903   0.04127   0.47686   1.000
    La1     La   0.79688   0.69393   0.82558   1.000
    H2      H    0.12698   0.55430   0.57388   1.000
    H3      H    0.99969   0.58806   0.40697   1.000
    H4      H    0.26108   0.12155   0.72812   1.000
    H5      H    0.39458   0.29863   0.89556   1.000
    H6      H    0.30989   0.81474   0.10220   1.000
    H7      H    0.01844   0.79691   0.20777   1.000
    H8      H    0.87020   0.85618   0.65550   1.000
    H9      H    0.67426   0.67184   0.37068   1.000
    H10     H    0.51872   0.35298   0.64731   1.000
    H11     H    0.73193   0.40510   0.92589   1.000
    H12     H    0.49032   0.49520   0.11064   1.000
    H13     H    0.99466   0.43839   0.17472   1.000
    C14     C    0.79075   0.47951   0.56691   1.000
    C15     C    0.96987   0.61986   0.57104   1.000
    C16     C    0.94357   0.68986   0.47256   1.000
    C17     C    0.08265   0.86023   0.48487   1.000
    C18     C    0.59746   0.05272   0.73461   1.000
    C19     C    0.41844   0.18942   0.73106   1.000
    C20     C    0.44738   0.34489   0.83030   1.000
    C21     C    0.30654   0.50480   0.82021   1.000
    C22     C    0.46152   0.74903   0.23934   1.000
    C23     C    0.31321   0.70163   0.13784   1.000
    C24     C    0.07860   0.66891   0.16331   1.000
    C25     C    0.93576   0.60745   0.06051   1.000
    O26     O    0.75816   0.34719   0.48951   1.000
    O27     O    0.68489   0.50573   0.64789   1.000
    O28     O    0.97251   0.75872   0.66611   1.000
    O29     O    0.72052   0.72477   0.44945   1.000
    O30     O    0.98254   0.99946   0.47533   1.000
    O31     O    0.28569   0.85118   0.50203   1.000
    O32     O    0.70374   0.00827   0.65376   1.000
    O33     O    0.63024   0.98869   0.81204   1.000
    O34     O    0.41600   0.24614   0.63660   1.000
    O35     O    0.67084   0.39953   0.85049   1.000
    O36     O    0.40576   0.65061   0.82444   1.000
    O37     O    0.10305   0.48174   0.80816   1.000
    O38     O    0.45016   0.90618   0.30034   1.000
    O39     O    0.58368   0.62855   0.25714   1.000
    O40     O    0.38781   0.54896   0.06747   1.000
    O41     O    0.07497   0.54100   0.22201   1.000
    O42     O    0.90801   0.71941   0.00445   1.000
    O43     O    0.85784   0.45090   0.03697   1.000
loop_
    _geom_bond_atom_site_label_1
    _geom_bond_atom_site_label_2
    _geom_bond_distance
    _geom_bond_site_symmetry_2
    _ccdc_geom_bond_type
    O42    C25       1.28752      .   S
    O42    La1       2.38138  1_554   S
    O43    C25       1.25999      .   S
    C25    C24       1.52799  1_655   S
    O40    H12       0.98310      .   S
    O40    C23       1.41863      .   S
    H6     C23       1.10125      .   S
    C23    C24       1.55800      .   S
    C23    C22       1.52653      .   S
    C24    H7        1.10400      .   S
    C24    O41       1.41642      .   S
    H13    O41       0.98270  1_655   S
    C22    O39       1.25999      .   S
    C22    O38       1.28849      .   S
    O38    La0       2.39851  1_565   S
    H9     O29       1.03918      .   S
    H3     C16       1.10193      .   S
    O29    C16       1.42920      .   S
    C16    C17       1.54409  1_655   S
    C16    C15       1.54246      .   S
    O30    La0       2.46055  1_565   S
    O30    C17       1.27608  1_655   S
    La0    O26       2.55727      .   S
    La0    O31       2.48911  1_545   S
    La0    O32       2.48013      .   S
    C17    O31       1.26283      .   S
    O26    C14       1.25794      .   S
    C14    C15       1.54308      .   S
    C14    O27       1.28756      .   S
    C15    H2        1.10079  1_655   S
    C15    O28       1.43847      .   S
    O34    H10       1.01821      .   S
    O34    C19       1.43766      .   S
    O27    La1       2.48282      .   S
    O32    C18       1.28743      .   S
    H8     O28       1.01709      .   S
    H4     C19       1.10097      .   S
    C19    C18       1.54208      .   S
    C19    C20       1.54346      .   S
    C18    O33       1.25817  1_545   S
    O37    C21       1.26281      .   S
    O37    La1       2.50153  1_455   S
    O33    La1       2.55471      .   S
    C21    O36       1.27506      .   S
    C21    C20       1.54563      .   S
    O36    La1       2.44405      .   S
    C20    O35       1.42871      .   S
    C20    H5        1.09939      .   S
    O35    H11       1.03235      .   S
    O28    La1       2.63559      .   S
    O29    La0       2.53832  1_565   S
    O34    La0       2.62895      .   S
    O35    La1       2.52860      .   S
