# CIF file generated by openbabel 2.4.90, see http://openbabel.sf.net
data_I
_chemical_name_common ''
_cell_length_a 22.915
_cell_length_b 13.727
_cell_length_c 18.178
_cell_angle_alpha 100.366
_cell_angle_beta 89.956
_cell_angle_gamma 114.764
_space_group_name_H-M_alt 'P 1'
_space_group_name_Hall 'P 1'
loop_
    _symmetry_equiv_pos_as_xyz
    x,y,z
loop_
    _atom_site_label
    _atom_site_type_symbol
    _atom_site_fract_x
    _atom_site_fract_y
    _atom_site_fract_z
    _atom_site_occupancy
    Lv0     Lv   0.74999   0.00004   0.49998   1.000
    Lv1     Lv   0.74999   0.00004   0.99999   1.000
    Lv2     Lv   0.26028   0.60352   0.60465   1.000
    Lv3     Lv   0.36218   0.99999   0.74999   1.000
    Lv4     Lv   0.76027   0.60352   0.60462   1.000
    Lv5     Lv   0.23972   0.39655   0.39531   1.000
    Lv6     Lv   0.63781   0.00008   0.24997   1.000
    Lv7     Lv   0.54158   0.60379   0.10469   1.000
    Lv8     Lv   0.73971   0.39655   0.39531   1.000
    Lv9     Lv   0.25000   0.00004   0.49998   1.000
    Lv10    Lv   0.45841   0.39628   0.89527   1.000
    Lv11    Lv   0.95841   0.39628   0.89528   1.000
    Lv12    Lv   0.86217   0.99999   0.75000   1.000
    Lv13    Lv   0.25001   0.00004   0.99997   1.000
    Lv14    Lv   0.13783   0.00007   0.24997   1.000
    Lv15    Lv   0.04159   0.60379   0.10469   1.000
