# CIF file generated by openbabel 2.4.90, see http://openbabel.sf.net
data_I
_chemical_name_common ''
_cell_length_a 22.915
_cell_length_b 13.727
_cell_length_c 18.178
_cell_angle_alpha 100.366
_cell_angle_beta 89.956
_cell_angle_gamma 114.764
_space_group_name_H-M_alt 'P 1'
_space_group_name_Hall 'P 1'
loop_
    _symmetry_equiv_pos_as_xyz
    x,y,z
loop_
    _atom_site_label
    _atom_site_type_symbol
    _atom_site_fract_x
    _atom_site_fract_y
    _atom_site_fract_z
    _atom_site_occupancy
    Zr0     Zr   0.49100   0.39815   0.40315   1.000
    Zr1     Zr   0.99100   0.39815   0.40315   1.000
    Zr2     Zr   0.29219   0.60228   0.09688   1.000
    Zr3     Zr   0.79218   0.60228   0.09688   1.000
    Zr4     Zr   0.00899   0.60192   0.59680   1.000
    Zr5     Zr   0.50899   0.60192   0.59683   1.000
    Zr6     Zr   0.20781   0.39779   0.90310   1.000
    Zr7     Zr   0.70780   0.39778   0.90310   1.000
    Zr8     Zr   0.04464   0.65407   0.43974   1.000
    Zr9     Zr   0.54466   0.65409   0.43975   1.000
    Zr10    Zr   0.44591   0.29788   0.25755   1.000
    Zr11    Zr   0.94589   0.29788   0.25756   1.000
    Zr12    Zr   0.21723   0.34609   0.06029   1.000
    Zr13    Zr   0.71725   0.34607   0.06027   1.000
    Zr14    Zr   0.29727   0.70273   0.24244   1.000
    Zr15    Zr   0.79728   0.70274   0.24245   1.000
    Zr16    Zr   0.45533   0.34598   0.56023   1.000
    Zr17    Zr   0.95531   0.34598   0.56022   1.000
    Zr18    Zr   0.05410   0.70219   0.74240   1.000
    Zr19    Zr   0.55410   0.70219   0.74242   1.000
    Zr20    Zr   0.28276   0.65399   0.93970   1.000
    Zr21    Zr   0.78272   0.65401   0.93970   1.000
    Zr22    Zr   0.20273   0.29734   0.75754   1.000
    Zr23    Zr   0.70269   0.29733   0.75753   1.000
    Zr24    Zr   0.04206   0.56261   0.40623   1.000
    Zr25    Zr   0.54203   0.56261   0.40622   1.000
    Zr26    Zr   0.47980   0.39472   0.25001   1.000
    Zr27    Zr   0.97980   0.39472   0.25001   1.000
    Zr28    Zr   0.44607   0.26313   0.31890   1.000
    Zr29    Zr   0.94606   0.26313   0.31890   1.000
    Zr30    Zr   0.02683   0.67466   0.50504   1.000
    Zr31    Zr   0.52680   0.67466   0.50503   1.000
    Zr32    Zr   0.26025   0.43775   0.09384   1.000
    Zr33    Zr   0.76022   0.43775   0.09385   1.000
    Zr34    Zr   0.28274   0.60597   0.25005   1.000
    Zr35    Zr   0.78271   0.60596   0.25004   1.000
    Zr36    Zr   0.31497   0.73746   0.18110   1.000
    Zr37    Zr   0.81495   0.73746   0.18109   1.000
    Zr38    Zr   0.18918   0.32524   0.99494   1.000
    Zr39    Zr   0.68915   0.32525   0.99495   1.000
    Zr40    Zr   0.45796   0.43746   0.59376   1.000
    Zr41    Zr   0.95795   0.43746   0.59376   1.000
    Zr42    Zr   0.02020   0.60536   0.74998   1.000
    Zr43    Zr   0.52018   0.60536   0.74998   1.000
    Zr44    Zr   0.05394   0.73694   0.68108   1.000
    Zr45    Zr   0.55392   0.73694   0.68108   1.000
    Zr46    Zr   0.47318   0.32541   0.49494   1.000
    Zr47    Zr   0.97317   0.32542   0.49494   1.000
    Zr48    Zr   0.23976   0.56232   0.90614   1.000
    Zr49    Zr   0.73977   0.56231   0.90613   1.000
    Zr50    Zr   0.21727   0.39411   0.74994   1.000
    Zr51    Zr   0.71727   0.39411   0.74995   1.000
    Zr52    Zr   0.18504   0.26260   0.81880   1.000
    Zr53    Zr   0.68504   0.26261   0.81889   1.000
    Zr54    Zr   0.31084   0.67483   0.00503   1.000
    Zr55    Zr   0.81084   0.67482   0.00500   1.000
    O56     O    0.80151   0.63855   0.05094   1.000
    O57     O    0.79678   0.66442   0.97235   1.000
    O58     O    0.30152   0.63856   0.05095   1.000
    O59     O    0.29680   0.66441   0.97237   1.000
    O60     O    0.73874   0.39191   0.07706   1.000
    O61     O    0.70320   0.33566   0.02761   1.000
    O62     O    0.23874   0.39192   0.07707   1.000
    O63     O    0.20321   0.33566   0.02761   1.000
    O64     O    0.27622   0.52002   0.09536   1.000
    O65     O    0.77620   0.52002   0.09536   1.000
    O66     O    0.30358   0.66987   0.13899   1.000
    O67     O    0.80357   0.66987   0.13898   1.000
    O68     O    0.80611   0.72010   0.21177   1.000
    O69     O    0.30612   0.72010   0.21177   1.000
    O70     O    0.29000   0.65435   0.24624   1.000
    O71     O    0.79000   0.65435   0.24624   1.000
    O72     O    0.96284   0.34630   0.25378   1.000
    O73     O    0.46286   0.34630   0.25378   1.000
    O74     O    0.44599   0.28050   0.28823   1.000
    O75     O    0.94597   0.28051   0.28823   1.000
    O76     O    0.46854   0.33064   0.36102   1.000
    O77     O    0.96853   0.33064   0.36102   1.000
    O78     O    0.01653   0.48038   0.40469   1.000
    O79     O    0.98209   0.36178   0.44904   1.000
    O80     O    0.51652   0.48038   0.40468   1.000
    O81     O    0.48209   0.36178   0.44904   1.000
    O82     O    0.54335   0.60835   0.42298   1.000
    O83     O    0.04335   0.60834   0.42298   1.000
    O84     O    0.03574   0.66437   0.47239   1.000
    O85     O    0.53573   0.66437   0.47239   1.000
    O86     O    0.46425   0.33570   0.52758   1.000
    O87     O    0.96424   0.33570   0.52758   1.000
    O88     O    0.51789   0.63829   0.55093   1.000
    O89     O    0.01791   0.63829   0.55092   1.000
    O90     O    0.95663   0.39172   0.57699   1.000
    O91     O    0.45664   0.39172   0.57699   1.000
    O92     O    0.98347   0.51969   0.59528   1.000
    O93     O    0.48347   0.51969   0.59529   1.000
    O94     O    0.03147   0.66943   0.63894   1.000
    O95     O    0.53145   0.66943   0.63895   1.000
    O96     O    0.05402   0.71957   0.71174   1.000
    O97     O    0.55401   0.71956   0.71175   1.000
    O98     O    0.03715   0.65378   0.74619   1.000
    O99     O    0.53714   0.65377   0.74620   1.000
    O100    O    0.21000   0.34573   0.75374   1.000
    O101    O    0.70998   0.34572   0.75374   1.000
    O102    O    0.69387   0.27997   0.78821   1.000
    O103    O    0.19389   0.27997   0.78817   1.000
    O104    O    0.19643   0.33019   0.86095   1.000
    O105    O    0.69642   0.33020   0.86099   1.000
    O106    O    0.22379   0.48005   0.90462   1.000
    O107    O    0.19850   0.36151   0.94902   1.000
    O108    O    0.72378   0.48005   0.90461   1.000
    O109    O    0.69848   0.36151   0.94903   1.000
    O110    O    0.76124   0.60816   0.92291   1.000
    O111    O    0.26126   0.60815   0.92292   1.000
    N112    N    0.74999   0.00004   0.49998   1.000
    O113    O    0.72772   0.12830   0.61280   1.000
    O114    O    0.77226   0.87177   0.38715   1.000
    N115    N    0.74999   0.00004   0.99999   1.000
    O116    O    0.83639   0.12855   0.11281   1.000
    O117    O    0.66360   0.87152   0.88717   1.000
    N118    N    0.26028   0.60352   0.60465   1.000
    O119    O    0.15796   0.60007   0.60115   1.000
    O120    O    0.36160   0.60477   0.60211   1.000
    N121    N    0.36218   0.99999   0.74999   1.000
    O122    O    0.40213   0.14971   0.66542   1.000
    O123    O    0.32744   0.85027   0.83454   1.000
    N124    N    0.76027   0.60352   0.60462   1.000
    O125    O    0.86159   0.60476   0.60209   1.000
    O126    O    0.65795   0.60007   0.60114   1.000
    N127    N    0.23972   0.39655   0.39531   1.000
    O128    O    0.34204   0.40000   0.39882   1.000
    O129    O    0.13840   0.39531   0.39786   1.000
    N130    N    0.63781   0.00008   0.24997   1.000
    O131    O    0.59786   0.85036   0.33455   1.000
    O132    O    0.67255   0.14980   0.16542   1.000
    N133    N    0.54158   0.60379   0.10469   1.000
    O134    O    0.44091   0.60500   0.10214   1.000
    O135    O    0.64222   0.60041   0.10121   1.000
    N136    N    0.73971   0.39655   0.39531   1.000
    O137    O    0.63839   0.39531   0.39786   1.000
    O138    O    0.84203   0.40000   0.39881   1.000
    N139    N    0.25000   0.00004   0.49998   1.000
    O140    O    0.27227   0.87177   0.38717   1.000
    O141    O    0.22773   0.12831   0.61280   1.000
    N142    N    0.45841   0.39628   0.89527   1.000
    O143    O    0.35777   0.39966   0.89876   1.000
    O144    O    0.55908   0.39507   0.89781   1.000
    N145    N    0.95841   0.39628   0.89528   1.000
    O146    O    0.85777   0.39966   0.89876   1.000
    O147    O    0.05909   0.39507   0.89781   1.000
    N148    N    0.86217   0.99999   0.75000   1.000
    O149    O    0.90212   0.14971   0.66542   1.000
    O150    O    0.82743   0.85027   0.83455   1.000
    N151    N    0.25001   0.00004   0.99997   1.000
    O152    O    0.33640   0.12855   0.11280   1.000
    O153    O    0.16361   0.87152   0.88715   1.000
    N154    N    0.13783   0.00007   0.24997   1.000
    O155    O    0.09787   0.85035   0.33455   1.000
    O156    O    0.17257   0.14980   0.16542   1.000
    N157    N    0.04159   0.60379   0.10469   1.000
    O158    O    0.94091   0.60500   0.10214   1.000
    O159    O    0.14223   0.60041   0.10121   1.000
loop_
    _geom_bond_atom_site_label_1
    _geom_bond_atom_site_label_2
    _geom_bond_distance
    _geom_bond_site_symmetry_2
    _ccdc_geom_bond_type
    Zr55   O56       1.02525      .   S
    Zr3    O56       1.02525      .   S
    Zr55   O57       0.63851  1_554   S
    Zr21   O57       0.63851      .   S
    Zr54   O58       1.02504      .   S
    Zr2    O58       1.02504      .   S
    Zr54   O59       0.63851  1_554   S
    Zr20   O59       0.63851      .   S
    Zr13   O60       0.63492      .   S
    Zr33   O60       0.63492      .   S
    Zr13   O61       0.63855      .   S
    Zr39   O61       0.63855  1_556   S
    Zr12   O62       0.63493      .   S
    Zr32   O62       0.63493      .   S
    Zr12   O63       0.63855      .   S
    Zr38   O63       0.63855  1_556   S
    Zr32   O64       1.02592      .   S
    Zr2    O64       1.02592      .   S
    Zr33   O65       1.02590      .   S
    Zr3    O65       1.02590      .   S
    Zr2    O66       1.02800      .   S
    Zr36   O66       1.02800      .   S
    Zr3    O67       1.02792      .   S
    Zr37   O67       1.02792      .   S
    Zr37   O68       0.64500      .   S
    Zr15   O68       0.64500      .   S
    Zr36   O69       0.64494      .   S
    Zr14   O69       0.64494      .   S
    Zr14   O70       0.63044      .   S
    Zr34   O70       0.63044      .   S
    Zr15   O71       0.63042      .   S
    Zr35   O71       0.63042      .   S
    Zr27   O72       0.63041      .   S
    Zr11   O72       0.63041      .   S
    Zr26   O73       0.63040      .   S
    Zr10   O73       0.63040      .   S
    Zr10   O74       0.64499      .   S
    Zr28   O74       0.64499      .   S
    Zr11   O75       0.64494      .   S
    Zr29   O75       0.64494      .   S
    Zr28   O76       1.02749      .   S
    Zr0    O76       1.02749      .   S
    Zr29   O77       1.02749      .   S
    Zr1    O77       1.02749      .   S
    Zr1    O78       1.02598  1_655   S
    Zr24   O78       1.02598      .   S
    Zr1    O79       1.02525      .   S
    Zr47   O79       1.02525      .   S
    Zr0    O80       1.02595      .   S
    Zr25   O80       1.02595      .   S
    Zr0    O81       1.02527      .   S
    Zr46   O81       1.02527      .   S
    Zr25   O82       0.63504      .   S
    Zr9    O82       0.63504      .   S
    Zr24   O83       0.63505      .   S
    Zr8    O83       0.63505      .   S
    Zr8    O84       0.63849      .   S
    Zr30   O84       0.63849      .   S
    Zr9    O85       0.63851      .   S
    Zr31   O85       0.63851      .   S
    Zr46   O86       0.63856      .   S
    Zr16   O86       0.63856      .   S
    Zr47   O87       0.63854      .   S
    Zr17   O87       0.63854      .   S
    Zr31   O88       1.02533      .   S
    Zr5    O88       1.02533      .   S
    Zr30   O89       1.02503      .   S
    Zr4    O89       1.02503      .   S
    Zr17   O90       0.63505      .   S
    Zr41   O90       0.63505      .   S
    Zr16   O91       0.63503      .   S
    Zr40   O91       0.63503      .   S
    Zr41   O92       1.02600      .   S
    Zr4    O92       1.02600  1_455   S
    Zr40   O93       1.02597      .   S
    Zr5    O93       1.02597      .   S
    Zr4    O94       1.02765      .   S
    Zr44   O94       1.02765      .   S
    Zr5    O95       1.02749      .   S
    Zr45   O95       1.02749      .   S
    Zr44   O96       0.64476      .   S
    Zr18   O96       0.64476      .   S
    Zr45   O97       0.64497      .   S
    Zr19   O97       0.64497      .   S
    Zr18   O98       0.63049      .   S
    Zr42   O98       0.63049      .   S
    Zr19   O99       0.63042      .   S
    Zr43   O99       0.63042      .   S
    Zr50   O100      0.63044      .   S
    Zr22   O100      0.63044      .   S
    Zr51   O101      0.63042      .   S
    Zr23   O101      0.63042      .   S
    Zr23   O102      0.64498      .   S
    Zr53   O102      0.64498      .   S
    Zr22   O103      0.64426      .   S
    Zr52   O103      0.64426      .   S
    Zr52   O104      1.02844      .   S
    Zr6    O104      1.02844      .   S
    Zr53   O105      1.02795      .   S
    Zr7    O105      1.02795      .   S
    Zr6    O106      1.02589      .   S
    Zr48   O106      1.02589      .   S
    Zr6    O107      1.02496      .   S
    Zr38   O107      1.02496      .   S
    Zr7    O108      1.02587      .   S
    Zr49   O108      1.02587      .   S
    Zr7    O109      1.02501      .   S
    Zr39   O109      1.02501      .   S
    Zr49   O110      0.63486      .   S
    Zr21   O110      0.63486      .   S
    Zr48   O111      0.63493      .   S
    Zr20   O111      0.63493      .   S
    N112   O113      2.64914      .   S
    Zr23   O113      3.39844      .   S
    N112   O114      2.64930  1_545   S
    Zr15   O114      3.39812      .   S
    N115   O116      2.64876  1_556   S
    Zr11   O116      3.39789      .   S
    N115   O117      2.64872  1_545   S
    Zr19   O117      3.39783      .   S
    N118   O119      2.32596      .   S
    Zr4    O119      3.42540      .   S
    N118   O120      2.31503      .   S
    Zr5    O120      3.39496      .   S
    N121   O122      2.64274  1_565   S
    Zr16   O122      3.39113      .   S
    N121   O123      2.64283      .   S
    Zr20   O123      3.39127      .   S
    N124   O125      2.31516      .   S
    Zr4    O125      3.39536  1_455   S
    N124   O126      2.32592      .   S
    Zr5    O126      3.42530      .   S
    N127   O128      2.32591      .   S
    Zr0    O128      3.42528      .   S
    N127   O129      2.31517      .   S
    Zr1    O129      3.39536  1_655   S
    N130   O131      2.64284  1_545   S
    Zr9    O131      3.39127      .   S
    N130   O132      2.64272      .   S
    Zr13   O132      3.39115      .   S
    N133   O134      2.31456      .   S
    Zr2    O134      3.39357      .   S
    N133   O135      2.32644      .   S
    Zr3    O135      3.42668      .   S
    N136   O137      2.31505      .   S
    Zr0    O137      3.39502      .   S
    N136   O138      2.32596      .   S
    Zr1    O138      3.42537      .   S
    N139   O140      2.64907  1_545   S
    Zr14   O140      3.39826      .   S
    N139   O141      2.64919      .   S
    Zr22   O141      3.39838      .   S
    N142   O143      2.32643      .   S
    Zr6    O143      3.42666      .   S
    N142   O144      2.31457      .   S
    Zr7    O144      3.39363      .   S
    N145   O146      2.32652      .   S
    Zr7    O146      3.42675      .   S
    N145   O147      2.31470  1_655   S
    Zr6    O147      3.39379      .   S
    N148   O149      2.64282  1_565   S
    Zr17   O149      3.39130      .   S
    N148   O150      2.64270      .   S
    Zr21   O150      3.39104      .   S
    N151   O152      2.64885  1_556   S
    Zr10   O152      3.39794      .   S
    N151   O153      2.64872  1_545   S
    Zr18   O153      3.39796      .   S
    N154   O155      2.64287  1_545   S
    Zr8    O155      3.39130      .   S
    N154   O156      2.64271      .   S
    Zr12   O156      3.39112      .   S
    N157   O158      2.31469  1_455   S
    Zr3    O158      3.39376      .   S
    N157   O159      2.32653      .   S
    Zr2    O159      3.42679      .   S
