# CIF file generated by openbabel 2.4.90, see http://openbabel.sf.net
data_I
_chemical_name_common ''
_cell_length_a 22.915
_cell_length_b 13.727
_cell_length_c 18.178
_cell_angle_alpha 100.366
_cell_angle_beta 89.956
_cell_angle_gamma 114.764
_space_group_name_H-M_alt 'P 1'
_space_group_name_Hall 'P 1'
loop_
    _symmetry_equiv_pos_as_xyz
    x,y,z
loop_
    _atom_site_label
    _atom_site_type_symbol
    _atom_site_fract_x
    _atom_site_fract_y
    _atom_site_fract_z
    _atom_site_occupancy
    N0      N    0.74999   0.00004   0.49998   1.000
    N1      N    0.74999   0.00004   0.99999   1.000
    N2      N    0.26028   0.60352   0.60465   1.000
    N3      N    0.36218   0.99999   0.74999   1.000
    N4      N    0.76027   0.60352   0.60462   1.000
    N5      N    0.23972   0.39655   0.39531   1.000
    N6      N    0.63781   0.00008   0.24997   1.000
    N7      N    0.54158   0.60379   0.10469   1.000
    N8      N    0.73971   0.39655   0.39531   1.000
    N9      N    0.25000   0.00004   0.49998   1.000
    N10     N    0.45841   0.39628   0.89527   1.000
    N11     N    0.95841   0.39628   0.89528   1.000
    N12     N    0.86217   0.99999   0.75000   1.000
    N13     N    0.25001   0.00004   0.99997   1.000
    N14     N    0.13783   0.00007   0.24997   1.000
    N15     N    0.04159   0.60379   0.10469   1.000
    Zr16    Zr   0.50000   0.50004   0.49999   1.000
    O17     O    0.45106   0.32487   0.58270   1.000
    O18     O    0.54893   0.67520   0.41727   1.000
    O19     O    0.41820   0.31429   0.30639   1.000
    O20     O    0.58180   0.68578   0.69358   1.000
    O21     O    0.57897   0.55005   0.55057   1.000
    O22     O    0.43080   0.55240   0.55105   1.000
    O23     O    0.42102   0.45002   0.44940   1.000
    O24     O    0.56919   0.44767   0.44892   1.000
    Zr25    Zr   1.00000   0.50004   0.49999   1.000
    O26     O    0.95106   0.32487   0.58270   1.000
    O27     O    0.04894   0.67519   0.41727   1.000
    O28     O    0.08180   0.68578   0.69357   1.000
    O29     O    0.91819   0.31430   0.30640   1.000
    O30     O    0.92101   0.45002   0.44940   1.000
    O31     O    0.06920   0.44767   0.44892   1.000
    O32     O    0.93079   0.55240   0.55104   1.000
    O33     O    0.07898   0.55005   0.55057   1.000
    Zr34    Zr   0.74999   0.50004   0.99999   1.000
    O35     O    0.73885   0.31417   0.80639   1.000
    O36     O    0.78871   0.67515   0.91727   1.000
    O37     O    0.69611   0.55022   0.05060   1.000
    O38     O    0.84545   0.55252   0.05106   1.000
    O39     O    0.76113   0.68590   0.19357   1.000
    O40     O    0.71127   0.32492   0.08271   1.000
    O41     O    0.65454   0.44755   0.94890   1.000
    O42     O    0.80388   0.44985   0.94938   1.000
    Zr43    Zr   0.25000   0.50004   0.99999   1.000
    O44     O    0.30389   0.44985   0.94937   1.000
    O45     O    0.15455   0.44755   0.94890   1.000
    O46     O    0.23887   0.31417   0.80639   1.000
    O47     O    0.21128   0.32492   0.08270   1.000
    O48     O    0.28872   0.67515   0.91726   1.000
    O49     O    0.26114   0.68590   0.19358   1.000
    O50     O    0.34546   0.55252   0.05106   1.000
    O51     O    0.19611   0.55022   0.05060   1.000
loop_
    _geom_bond_atom_site_label_1
    _geom_bond_atom_site_label_2
    _geom_bond_distance
    _geom_bond_site_symmetry_2
    _ccdc_geom_bond_type
    Zr16   O17       2.88776      .   S
    N3     O17       5.52679  1_565   S
    Zr16   O18       2.88780      .   S
    N6     O18       5.52693  1_545   S
    Zr16   O19       3.89564      .   S
    N13    O19       6.47667  1_556   S
    Zr16   O20       3.89558      .   S
    N1     O20       6.47647  1_545   S
    Zr16   O21       1.82381      .   S
    N4     O21       3.99448      .   S
    Zr16   O22       2.14596      .   S
    N2     O22       4.33059      .   S
    Zr16   O23       1.82390      .   S
    N5     O23       3.99461      .   S
    Zr16   O24       2.14599      .   S
    N8     O24       4.33068      .   S
    Zr25   O26       2.88781      .   S
    N12    O26       5.52692  1_565   S
    Zr25   O27       2.88778  1_655   S
    N14    O27       5.52694  1_545   S
    Zr25   O28       3.89553  1_655   S
    N13    O28       6.47644  1_545   S
    Zr25   O29       3.89560      .   S
    N1     O29       6.47656  1_556   S
    Zr25   O30       1.82401      .   S
    N8     O30       3.99478      .   S
    Zr25   O31       2.14605  1_655   S
    N5     O31       4.33086      .   S
    Zr25   O32       2.14598      .   S
    N4     O32       4.33077      .   S
    Zr25   O33       1.82396  1_655   S
    N2     O33       3.99474      .   S
    Zr34   O35       3.89665      .   S
    N0     O35       6.47761      .   S
    Zr34   O36       2.88769      .   S
    N12    O36       5.52676      .   S
    Zr34   O37       1.82444  1_556   S
    N7     O37       3.99506      .   S
    Zr34   O38       2.14662  1_556   S
    N15    O38       4.33083  1_455   S
    Zr34   O39       3.89651  1_556   S
    N0     O39       6.47767  1_545   S
    Zr34   O40       2.88766  1_556   S
    N6     O40       5.52675      .   S
    Zr34   O41       2.14663      .   S
    N10    O41       4.33063      .   S
    Zr34   O42       1.82450      .   S
    N11    O42       3.99523      .   S
    Zr43   O44       1.82444      .   S
    N10    O44       3.99509      .   S
    Zr43   O45       2.14670      .   S
    N11    O45       4.33084  1_655   S
    Zr43   O46       3.89662      .   S
    N9     O46       6.47765      .   S
    Zr43   O47       2.88768  1_556   S
    N14    O47       5.52676      .   S
    Zr43   O48       2.88767      .   S
    N3     O48       5.52687      .   S
    Zr43   O49       3.89664  1_556   S
    N9     O49       6.47754  1_545   S
    Zr43   O50       2.14654  1_556   S
    N7     O50       4.33060      .   S
    Zr43   O51       1.82450  1_556   S
    N15    O51       3.99522      .   S
