# CIF file generated by openbabel 2.4.90, see http://openbabel.sf.net
data_I
_chemical_name_common ''
_cell_length_a 18.655
_cell_length_b 17.343
_cell_length_c 20.282
_cell_angle_alpha 89.999
_cell_angle_beta 90.009
_cell_angle_gamma 98.643
_space_group_name_H-M_alt 'P 1'
_space_group_name_Hall 'P 1'
loop_
    _symmetry_equiv_pos_as_xyz
    x,y,z
loop_
    _atom_site_label
    _atom_site_type_symbol
    _atom_site_fract_x
    _atom_site_fract_y
    _atom_site_fract_z
    _atom_site_occupancy
    H0      H    0.08313   0.96874   0.85145   1.000
    H1      H    0.58313   0.96874   0.85145   1.000
    H2      H    0.13198   0.92276   0.91218   1.000
    H3      H    0.63198   0.92276   0.91218   1.000
    H4      H    0.47334   0.01751   0.88131   1.000
    H5      H    0.97335   0.01751   0.88131   1.000
    H6      H    0.11706   0.96030   0.03447   1.000
    H7      H    0.61707   0.96029   0.03447   1.000
    H8      H    0.16682   0.53143   0.35149   1.000
    H9      H    0.66682   0.53143   0.35149   1.000
    H10     H    0.11795   0.57730   0.41226   1.000
    H11     H    0.61795   0.57730   0.41226   1.000
    H12     H    0.27659   0.48254   0.38130   1.000
    H13     H    0.77659   0.48254   0.38130   1.000
    H14     H    0.13297   0.53978   0.53450   1.000
    H15     H    0.63297   0.53978   0.53450   1.000
    H16     H    0.41687   0.03127   0.14853   1.000
    H17     H    0.91687   0.03128   0.14853   1.000
    H18     H    0.36802   0.07725   0.08780   1.000
    H19     H    0.86802   0.07725   0.08780   1.000
    H20     H    0.02665   0.98251   0.11867   1.000
    H21     H    0.52666   0.98251   0.11867   1.000
    H22     H    0.38293   0.03972   0.96551   1.000
    H23     H    0.88294   0.03972   0.96551   1.000
    H24     H    0.33318   0.46858   0.64848   1.000
    H25     H    0.83318   0.46859   0.64849   1.000
    H26     H    0.38205   0.42272   0.58771   1.000
    H27     H    0.88205   0.42272   0.58772   1.000
    H28     H    0.22341   0.51748   0.61860   1.000
    H29     H    0.72341   0.51748   0.61868   1.000
    H30     H    0.36703   0.46024   0.46540   1.000
    H31     H    0.86703   0.46024   0.46548   1.000
    C32     C    0.10755   0.97544   0.90106   1.000
    C33     C    0.60755   0.97544   0.90106   1.000
    C34     C    0.05150   0.98712   0.95190   1.000
    C35     C    0.55151   0.98712   0.95191   1.000
    C36     C    0.48518   0.00938   0.93334   1.000
    C37     C    0.98519   0.00938   0.93334   1.000
    C38     C    0.06578   0.97775   0.01909   1.000
    C39     C    0.56579   0.97775   0.01909   1.000
    O40     O    0.41308   0.54306   0.59740   1.000
    O41     O    0.91309   0.54306   0.59740   1.000
    C42     C    0.14241   0.52465   0.40110   1.000
    C43     C    0.64242   0.52466   0.40110   1.000
    C44     C    0.19848   0.51295   0.45190   1.000
    C45     C    0.69848   0.51296   0.45193   1.000
    C46     C    0.26478   0.49065   0.43334   1.000
    C47     C    0.76478   0.49065   0.43334   1.000
    C48     C    0.18424   0.52230   0.51911   1.000
    C49     C    0.68424   0.52230   0.51911   1.000
    C50     C    0.39245   0.02457   0.09891   1.000
    C51     C    0.89246   0.02457   0.09891   1.000
    C52     C    0.44849   0.01289   0.04807   1.000
    C53     C    0.94850   0.01289   0.04807   1.000
    C54     C    0.01481   0.99063   0.06664   1.000
    C55     C    0.51482   0.99063   0.06664   1.000
    C56     C    0.43421   0.02227   0.98088   1.000
    C57     C    0.93422   0.02226   0.98080   1.000
    C58     C    0.35758   0.47536   0.59887   1.000
    C59     C    0.85759   0.47536   0.59888   1.000
    C60     C    0.30152   0.48706   0.54805   1.000
    C61     C    0.80152   0.48707   0.54805   1.000
    C62     C    0.23522   0.50937   0.56664   1.000
    C63     C    0.73522   0.50937   0.56664   1.000
    C64     C    0.31576   0.47771   0.48087   1.000
    C65     C    0.81576   0.47771   0.48087   1.000
    O66     O    0.16309   0.04309   0.90258   1.000
    O67     O    0.66309   0.04309   0.90258   1.000
    O68     O    0.08691   0.45696   0.40257   1.000
    O69     O    0.58692   0.45696   0.40250   1.000
    O70     O    0.33691   0.95692   0.09740   1.000
    O71     O    0.83692   0.95692   0.09740   1.000
loop_
    _geom_bond_atom_site_label_1
    _geom_bond_atom_site_label_2
    _geom_bond_distance
    _geom_bond_site_symmetry_2
    _ccdc_geom_bond_type
    C38    H6        1.09140      .   S
    C38    C54       1.39578      .   S
    C38    C34       1.40261  1_554   S
    C39    H7        1.09140      .   S
    C39    C55       1.39578      .   S
    C39    C35       1.40242  1_554   S
    C52    C55       1.40188  1_545   S
    C52    C50       1.50374      .   S
    C52    C56       1.40262  1_554   S
    C53    C54       1.40158  1_645   S
    C53    C51       1.50378      .   S
    C53    C57       1.40419  1_554   S
    C55    H21       1.09158      .   S
    C54    H20       1.09159      .   S
    H19    C51       1.10377      .   S
    H18    C50       1.10379      .   S
    O71    C51       1.44414  1_565   S
    O70    C50       1.44412  1_565   S
    C51    H17       1.10354      .   S
    C50    H16       1.10356      .   S
    H8     C42       1.10340      .   S
    H9     C43       1.10339      .   S
    H13    C47       1.09167      .   S
    H12    C46       1.09167      .   S
    C43    O69       1.44431      .   S
    C43    H11       1.10381      .   S
    C43    C45       1.50382      .   S
    C42    O68       1.44436      .   S
    C42    H10       1.10381      .   S
    C42    C44       1.50342      .   S
    C46    C44       1.40175      .   S
    C46    C64       1.39570      .   S
    C47    C45       1.40191      .   S
    C47    C65       1.39570      .   S
    C44    C48       1.40293      .   S
    C45    C49       1.40233      .   S
    H30    C64       1.09183      .   S
    H31    C65       1.09137      .   S
    C64    C60       1.40233      .   S
    C65    C61       1.40233      .   S
    C49    H15       1.09136      .   S
    C49    C63       1.39570      .   S
    C48    H14       1.09136      .   S
    C48    C62       1.39570      .   S
    C60    C62       1.40191      .   S
    C60    C58       1.50369      .   S
    C61    C63       1.40192      .   S
    C61    C59       1.50384      .   S
    C62    H28       1.09010      .   S
    C63    H29       1.09167      .   S
    H26    C58       1.10379      .   S
    H27    C59       1.10380      .   S
    O41    C59       1.44438      .   S
    O40    C58       1.44434      .   S
    C58    H24       1.10340      .   S
    C59    H25       1.10341      .   S
    H0     C32       1.10336      .   S
    H1     C33       1.10338      .   S
    H5     C37       1.09159      .   S
    H4     C36       1.09157      .   S
    C32    O66       1.44415  1_565   S
    C32    H2        1.10383      .   S
    C32    C34       1.50378      .   S
    C33    O67       1.44413  1_565   S
    C33    H3        1.10383      .   S
    C33    C35       1.50387      .   S
    C37    C34       1.40153  1_645   S
    C37    C57       1.39452      .   S
    C36    C35       1.40190  1_545   S
    C36    C56       1.39563      .   S
    H22    C56       1.09135      .   S
    H23    C57       1.09088      .   S
