# CIF file generated by openbabel 2.4.90, see http://openbabel.sf.net
data_I
_chemical_name_common ''
_cell_length_a 18.655
_cell_length_b 17.343
_cell_length_c 20.282
_cell_angle_alpha 89.999
_cell_angle_beta 90.009
_cell_angle_gamma 98.643
_space_group_name_H-M_alt 'P 1'
_space_group_name_Hall 'P 1'
loop_
    _symmetry_equiv_pos_as_xyz
    x,y,z
loop_
    _atom_site_label
    _atom_site_type_symbol
    _atom_site_fract_x
    _atom_site_fract_y
    _atom_site_fract_z
    _atom_site_occupancy
    H0      H    0.40019   0.05244   0.76000   1.000
    H1      H    0.90019   0.05244   0.76079   1.000
    H2      H    0.19062   0.93105   0.81259   1.000
    H3      H    0.69062   0.93106   0.81259   1.000
    H4      H    0.27119   0.15268   0.90450   1.000
    H5      H    0.77119   0.15268   0.90450   1.000
    H6      H    0.05250   0.11937   0.75652   1.000
    H7      H    0.55251   0.11938   0.75652   1.000
    H8      H    0.12958   0.06739   0.67117   1.000
    H9      H    0.62958   0.06739   0.67117   1.000
    H10     H    0.25579   0.29603   0.66000   1.000
    H11     H    0.75579   0.29603   0.66000   1.000
    H12     H    0.17394   0.33924   0.74766   1.000
    H13     H    0.67394   0.33924   0.74766   1.000
    H14     H    0.21223   0.16196   0.55497   1.000
    H15     H    0.71223   0.16196   0.55497   1.000
    H16     H    0.24220   0.08903   0.60466   1.000
    H17     H    0.74221   0.08904   0.60466   1.000
    H18     H    0.35272   0.13157   0.51830   1.000
    H19     H    0.85272   0.13157   0.51830   1.000
    H20     H    0.31091   0.21294   0.49330   1.000
    H21     H    0.81091   0.21295   0.49300   1.000
    H22     H    0.41280   0.30546   0.53567   1.000
    H23     H    0.91281   0.30547   0.53567   1.000
    H24     H    0.44275   0.23914   0.47860   1.000
    H25     H    0.94276   0.23915   0.47861   1.000
    H26     H    0.47175   0.20070   0.68040   1.000
    H27     H    0.97175   0.20070   0.68040   1.000
    H28     H    0.43136   0.28327   0.65766   1.000
    H29     H    0.93136   0.28328   0.65765   1.000
    H30     H    0.33860   0.17836   0.69567   1.000
    H31     H    0.83861   0.17837   0.69560   1.000
    H32     H    0.36797   0.11014   0.63997   1.000
    H33     H    0.86797   0.11015   0.63997   1.000
    H34     H    0.03743   0.32951   0.57792   1.000
    H35     H    0.53743   0.32951   0.57792   1.000
    H36     H    0.06972   0.25321   0.62080   1.000
    H37     H    0.56973   0.25321   0.62080   1.000
    H38     H    0.02436   0.13831   0.49240   1.000
    H39     H    0.52436   0.13831   0.49240   1.000
    H40     H    0.10196   0.12133   0.39232   1.000
    H41     H    0.60197   0.12132   0.39232   1.000
    H42     H    0.23294   0.33144   0.42000   1.000
    H43     H    0.73294   0.33144   0.42899   1.000
    H44     H    0.16044   0.35828   0.52674   1.000
    H45     H    0.66044   0.35828   0.52670   1.000
    H46     H    0.34976   0.44752   0.26079   1.000
    H47     H    0.84977   0.44752   0.26079   1.000
    H48     H    0.05931   0.56900   0.31259   1.000
    H49     H    0.55932   0.56900   0.31260   1.000
    H50     H    0.47885   0.34734   0.40450   1.000
    H51     H    0.97885   0.34734   0.40451   1.000
    H52     H    0.19761   0.38057   0.25646   1.000
    H53     H    0.69761   0.38057   0.25646   1.000
    H54     H    0.12058   0.43250   0.17101   1.000
    H55     H    0.62058   0.43250   0.17101   1.000
    H56     H    0.99433   0.20387   0.15992   1.000
    H57     H    0.49433   0.20387   0.15992   1.000
    H58     H    0.07614   0.16072   0.24767   1.000
    H59     H    0.57614   0.16072   0.24768   1.000
    H60     H    0.03786   0.33779   0.05483   1.000
    H61     H    0.53787   0.33779   0.05483   1.000
    H62     H    0.00796   0.41082   0.10444   1.000
    H63     H    0.50797   0.41082   0.10444   1.000
    H64     H    0.39732   0.36816   0.01810   1.000
    H65     H    0.89732   0.36816   0.01816   1.000
    H66     H    0.43913   0.28675   0.99322   1.000
    H67     H    0.93913   0.28676   0.99322   1.000
    H68     H    0.33728   0.19429   0.03570   1.000
    H69     H    0.83728   0.19430   0.03570   1.000
    H70     H    0.30727   0.26051   0.97862   1.000
    H71     H    0.80727   0.26052   0.97862   1.000
    H72     H    0.27847   0.29928   0.18039   1.000
    H73     H    0.77847   0.29928   0.18000   1.000
    H74     H    0.31885   0.21668   0.15772   1.000
    H75     H    0.81885   0.21667   0.15770   1.000
    H76     H    0.56088   0.71325   0.00670   1.000
    H77     H    0.16273   0.80571   0.96422   1.000
    H78     H    0.66273   0.80571   0.96422   1.000
    H79     H    0.19274   0.73949   0.02135   1.000
    H80     H    0.41164   0.32166   0.19557   1.000
    H81     H    0.91164   0.32166   0.19558   1.000
    H82     H    0.38220   0.38978   0.13982   1.000
    H83     H    0.88220   0.38978   0.13980   1.000
    H84     H    0.21262   0.17036   0.07801   1.000
    H85     H    0.71262   0.17036   0.07801   1.000
    H86     H    0.18041   0.24674   0.12084   1.000
    H87     H    0.68041   0.24674   0.12084   1.000
    H88     H    0.22586   0.36147   0.99233   1.000
    H89     H    0.72586   0.36147   0.99230   1.000
    H90     H    0.14824   0.37847   0.89225   1.000
    H91     H    0.64824   0.37848   0.89225   1.000
    H92     H    0.01706   0.16854   0.92906   1.000
    H93     H    0.51706   0.16853   0.92900   1.000
    H94     H    0.08954   0.14169   0.02683   1.000
    H95     H    0.58954   0.14168   0.02683   1.000
    H96     H    0.09981   0.94757   0.23918   1.000
    H97     H    0.59981   0.94757   0.23918   1.000
    H98     H    0.30939   0.06895   0.18739   1.000
    H99     H    0.80938   0.06896   0.18739   1.000
    H100    H    0.22881   0.84733   0.09547   1.000
    H101    H    0.72881   0.84733   0.09547   1.000
    C102    C    0.16645   0.27959   0.72899   1.000
    C103    C    0.66645   0.27959   0.72899   1.000
    C104    C    0.24163   0.15294   0.60089   1.000
    C105    C    0.74163   0.15294   0.60089   1.000
    C106    C    0.34615   0.19258   0.53079   1.000
    H107    H    0.44749   0.88064   0.24344   1.000
    H108    H    0.94749   0.88064   0.24344   1.000
    H109    H    0.37042   0.93262   0.32879   1.000
    H110    H    0.87042   0.93262   0.32879   1.000
    H111    H    0.24422   0.70398   0.33998   1.000
    H112    H    0.74422   0.70398   0.33998   1.000
    H113    H    0.32606   0.66077   0.25231   1.000
    H114    H    0.82606   0.66077   0.25231   1.000
    H115    H    0.28777   0.83804   0.44500   1.000
    H116    H    0.78777   0.83805   0.44500   1.000
    H117    H    0.25780   0.91098   0.39532   1.000
    H118    H    0.75780   0.91098   0.39532   1.000
    H119    H    0.14729   0.86844   0.48167   1.000
    H120    H    0.64729   0.86844   0.48160   1.000
    H121    H    0.18910   0.78706   0.50668   1.000
    H122    H    0.68910   0.78706   0.50668   1.000
    H123    H    0.08719   0.69455   0.46430   1.000
    H124    H    0.58720   0.69455   0.46430   1.000
    H125    H    0.05725   0.76087   0.52136   1.000
    H126    H    0.55725   0.76087   0.52136   1.000
    H127    H    0.02825   0.79933   0.31957   1.000
    H128    H    0.52825   0.79933   0.31957   1.000
    H129    H    0.06864   0.71675   0.34232   1.000
    H130    H    0.56864   0.71675   0.34232   1.000
    H131    H    0.16140   0.82165   0.30431   1.000
    H132    H    0.66140   0.82165   0.30431   1.000
    H133    H    0.13204   0.88987   0.36001   1.000
    H134    H    0.63204   0.88987   0.36000   1.000
    H135    H    0.46257   0.67051   0.42205   1.000
    H136    H    0.96257   0.67051   0.42200   1.000
    H137    H    0.43028   0.74681   0.37918   1.000
    H138    H    0.93029   0.74682   0.37918   1.000
    H139    H    0.47564   0.86171   0.50758   1.000
    H140    H    0.97564   0.86171   0.50758   1.000
    H141    H    0.39804   0.87869   0.60766   1.000
    H142    H    0.89804   0.87869   0.60766   1.000
    H143    H    0.26706   0.66858   0.57098   1.000
    H144    H    0.76707   0.66858   0.57098   1.000
    H145    H    0.33956   0.64174   0.47324   1.000
    H146    H    0.83956   0.64174   0.47320   1.000
    H147    H    0.15024   0.55248   0.73918   1.000
    H148    H    0.65024   0.55249   0.73919   1.000
    H149    H    0.44068   0.43101   0.68738   1.000
    H150    H    0.94069   0.43101   0.68738   1.000
    H151    H    0.02115   0.65267   0.59547   1.000
    H152    H    0.52115   0.65267   0.59547   1.000
    H153    H    0.30239   0.61943   0.74351   1.000
    H154    H    0.80239   0.61944   0.74352   1.000
    H155    H    0.37942   0.56750   0.82896   1.000
    H156    H    0.87942   0.56750   0.82897   1.000
    H157    H    0.50567   0.79613   0.84006   1.000
    H158    H    0.00000   0.79614   0.84006   1.000
    H159    H    0.42386   0.83929   0.75230   1.000
    H160    H    0.92386   0.83929   0.75230   1.000
    H161    H    0.46214   0.66221   0.94510   1.000
    H162    H    0.96215   0.66222   0.94515   1.000
    H163    H    0.49204   0.58918   0.89553   1.000
    H164    H    0.99204   0.58919   0.89554   1.000
    H165    H    0.10268   0.63185   0.98180   1.000
    H166    H    0.60268   0.63184   0.98182   1.000
    H167    H    0.06088   0.71325   0.00676   1.000
    C168    C    0.60097   0.54986   0.71016   1.000
    C169    C    0.04617   0.48612   0.71756   1.000
    C170    C    0.54618   0.48612   0.71756   1.000
    C171    C    0.48200   0.48166   0.68050   1.000
    C172    C    0.98201   0.48167   0.68050   1.000
    C173    C    0.47330   0.54166   0.63639   1.000
    H174    H    0.69274   0.73949   0.02135   1.000
    H175    H    0.22154   0.70072   0.81958   1.000
    H176    H    0.72154   0.70073   0.81958   1.000
    H177    H    0.18116   0.78333   0.84226   1.000
    H178    H    0.68115   0.78333   0.84226   1.000
    H179    H    0.08836   0.67835   0.80440   1.000
    H180    H    0.58837   0.67835   0.80440   1.000
    H181    H    0.11780   0.61022   0.86015   1.000
    H182    H    0.61781   0.61022   0.86015   1.000
    H183    H    0.28739   0.82965   0.92190   1.000
    H184    H    0.78738   0.82965   0.92196   1.000
    H185    H    0.31959   0.75326   0.87913   1.000
    H186    H    0.81959   0.75327   0.87910   1.000
    H187    H    0.27416   0.63853   0.00763   1.000
    H188    H    0.77416   0.63853   0.00763   1.000
    H189    H    0.35177   0.62153   0.10772   1.000
    H190    H    0.85177   0.62153   0.10772   1.000
    H191    H    0.48294   0.83148   0.07092   1.000
    H192    H    0.98294   0.83148   0.07092   1.000
    H193    H    0.41046   0.85832   0.97314   1.000
    H194    H    0.91046   0.85833   0.97314   1.000
    C195    C    0.34222   0.11004   0.83386   1.000
    C196    C    0.84222   0.11005   0.83386   1.000
    C197    C    0.35094   0.04984   0.78982   1.000
    C198    C    0.85094   0.04984   0.78982   1.000
    C199    C    0.29613   0.98613   0.78242   1.000
    C200    C    0.79613   0.98613   0.78242   1.000
    C201    C    0.23196   0.98170   0.81947   1.000
    C202    C    0.73196   0.98170   0.81947   1.000
    C203    C    0.22329   0.04167   0.86359   1.000
    C204    C    0.72329   0.04167   0.86359   1.000
    C205    C    0.27823   0.10591   0.87042   1.000
    C206    C    0.77823   0.10591   0.87042   1.000
    C207    C    0.09850   0.15633   0.73416   1.000
    C208    C    0.59850   0.15633   0.73416   1.000
    C209    C    0.14121   0.12836   0.68620   1.000
    C210    C    0.64121   0.12836   0.68620   1.000
    C211    C    0.19808   0.17890   0.65729   1.000
    C212    C    0.69808   0.17891   0.65729   1.000
    C213    C    0.21099   0.25570   0.68063   1.000
    C214    C    0.71099   0.25570   0.68063   1.000
    C215    C    0.84615   0.19259   0.53079   1.000
    C216    C    0.41992   0.24345   0.52809   1.000
    C217    C    0.91992   0.24346   0.52809   1.000
    C218    C    0.43636   0.22235   0.64375   1.000
    C219    C    0.93637   0.22236   0.64375   1.000
    C220    C    0.36223   0.17256   0.64661   1.000
    C221    C    0.86223   0.17256   0.64661   1.000
    C222    C    0.04014   0.26580   0.57599   1.000
    C223    C    0.54015   0.26580   0.57599   1.000
    C224    C    0.08549   0.25013   0.51732   1.000
    C225    C    0.58549   0.25013   0.51732   1.000
    C226    C    0.07030   0.18217   0.47938   1.000
    C227    C    0.57031   0.18216   0.47938   1.000
    C228    C    0.11270   0.17207   0.42459   1.000
    C229    C    0.61270   0.17207   0.42459   1.000
    C230    C    0.18639   0.29004   0.44463   1.000
    C231    C    0.68639   0.29004   0.44463   1.000
    C232    C    0.14579   0.30418   0.49933   1.000
    C233    C    0.64579   0.30418   0.49933   1.000
    C234    C    0.40778   0.38995   0.33386   1.000
    C235    C    0.90779   0.38996   0.33386   1.000
    C236    C    0.39903   0.45015   0.28982   1.000
    C237    C    0.89904   0.45015   0.28982   1.000
    C238    C    0.45382   0.51389   0.28242   1.000
    C239    C    0.95383   0.51389   0.28242   1.000
    C240    C    0.01799   0.51835   0.31948   1.000
    C241    C    0.51800   0.51835   0.31948   1.000
    C242    C    0.02670   0.45836   0.36359   1.000
    C243    C    0.52670   0.45836   0.36359   1.000
    C244    C    0.47178   0.39411   0.37042   1.000
    C245    C    0.97179   0.39411   0.37042   1.000
    C246    C    0.15162   0.34361   0.23400   1.000
    C247    C    0.65162   0.34361   0.23409   1.000
    C248    C    0.10893   0.37155   0.18612   1.000
    C249    C    0.60893   0.37155   0.18612   1.000
    C250    C    0.05206   0.32099   0.15717   1.000
    C251    C    0.55206   0.32099   0.15717   1.000
    C252    C    0.03913   0.24421   0.18055   1.000
    C253    C    0.53913   0.24421   0.18055   1.000
    C254    C    0.08364   0.22036   0.22896   1.000
    C255    C    0.58364   0.22036   0.22896   1.000
    C256    C    0.00850   0.34690   0.10074   1.000
    C257    C    0.50851   0.34690   0.10074   1.000
    C258    C    0.40392   0.30717   0.03071   1.000
    C259    C    0.90392   0.30718   0.03071   1.000
    C260    C    0.33015   0.25629   0.02811   1.000
    C261    C    0.83016   0.25629   0.02811   1.000
    C262    C    0.31381   0.27757   0.14374   1.000
    C263    C    0.81381   0.27757   0.14370   1.000
    C264    C    0.38795   0.32738   0.14652   1.000
    C265    C    0.88795   0.32738   0.14653   1.000
    C266    C    0.20995   0.23407   0.07604   1.000
    C267    C    0.70995   0.23407   0.07604   1.000
    C268    C    0.16461   0.24974   0.01735   1.000
    C269    C    0.66461   0.24974   0.01735   1.000
    C270    C    0.17986   0.31766   0.97934   1.000
    C271    C    0.67986   0.31766   0.97934   1.000
    C272    C    0.13746   0.32776   0.92455   1.000
    C273    C    0.63746   0.32776   0.92455   1.000
    C274    C    0.06365   0.20990   0.94466   1.000
    C275    C    0.56365   0.20990   0.94466   1.000
    C276    C    0.10424   0.19575   0.99939   1.000
    C277    C    0.60425   0.19575   0.99939   1.000
    C278    C    0.15778   0.88997   0.16612   1.000
    C279    C    0.65778   0.88997   0.16612   1.000
    C280    C    0.14906   0.95017   0.21010   1.000
    C281    C    0.64907   0.95017   0.21015   1.000
    C282    C    0.20387   0.01388   0.21756   1.000
    C283    C    0.70387   0.01388   0.21756   1.000
    C284    C    0.26805   0.01832   0.18050   1.000
    C285    C    0.76805   0.01832   0.18050   1.000
    C286    C    0.27671   0.95834   0.13639   1.000
    C287    C    0.77672   0.95834   0.13639   1.000
    C288    C    0.22177   0.89410   0.12955   1.000
    C289    C    0.72177   0.89411   0.12955   1.000
    C290    C    0.40150   0.84368   0.26581   1.000
    C291    C    0.90150   0.84368   0.26581   1.000
    C292    C    0.35879   0.87166   0.31372   1.000
    C293    C    0.85879   0.87166   0.31372   1.000
    C294    C    0.30192   0.82111   0.34268   1.000
    C295    C    0.80192   0.82111   0.34268   1.000
    C296    C    0.28901   0.74431   0.31930   1.000
    C297    C    0.78901   0.74431   0.31935   1.000
    C298    C    0.33355   0.72042   0.27098   1.000
    C299    C    0.83355   0.72042   0.27098   1.000
    C300    C    0.25838   0.84707   0.39900   1.000
    C301    C    0.75838   0.84707   0.39900   1.000
    C302    C    0.15385   0.80743   0.46919   1.000
    C303    C    0.65385   0.80743   0.46919   1.000
    C304    C    0.08008   0.75656   0.47188   1.000
    C305    C    0.58009   0.75656   0.47188   1.000
    C306    C    0.06363   0.77767   0.35620   1.000
    C307    C    0.56364   0.77767   0.35623   1.000
    C308    C    0.13778   0.82746   0.35330   1.000
    C309    C    0.63778   0.82746   0.35337   1.000
    C310    C    0.45985   0.73422   0.42399   1.000
    C311    C    0.95986   0.73422   0.42399   1.000
    C312    C    0.41452   0.74988   0.48266   1.000
    C313    C    0.91452   0.74989   0.48266   1.000
    C314    C    0.42970   0.81785   0.52060   1.000
    C315    C    0.92970   0.81785   0.52060   1.000
    C316    C    0.38730   0.82794   0.57539   1.000
    C317    C    0.88730   0.82794   0.57530   1.000
    C318    C    0.31361   0.70998   0.55535   1.000
    C319    C    0.81361   0.70998   0.55535   1.000
    C320    C    0.35421   0.69584   0.50060   1.000
    C321    C    0.85421   0.69584   0.50060   1.000
    C322    C    0.09222   0.61006   0.66612   1.000
    C323    C    0.59222   0.61006   0.66612   1.000
    C324    C    0.10096   0.54986   0.71016   1.000
    C325    C    0.97330   0.54166   0.63639   1.000
    C326    C    0.02822   0.60590   0.62955   1.000
    C327    C    0.52822   0.60590   0.62955   1.000
    C328    C    0.34839   0.65640   0.76589   1.000
    C329    C    0.84839   0.65640   0.76589   1.000
    C330    C    0.39108   0.62845   0.81385   1.000
    C331    C    0.89108   0.62846   0.81385   1.000
    C332    C    0.44794   0.67902   0.84281   1.000
    C333    C    0.94795   0.67902   0.84281   1.000
    C334    C    0.46088   0.75580   0.81943   1.000
    C335    C    0.96088   0.75580   0.81943   1.000
    C336    C    0.41636   0.77965   0.77100   1.000
    C337    C    0.91636   0.77966   0.77102   1.000
    C338    C    0.49149   0.65310   0.89924   1.000
    C339    C    0.99150   0.65311   0.89924   1.000
    C340    C    0.09608   0.69283   0.96926   1.000
    C341    C    0.59609   0.69283   0.96926   1.000
    C342    C    0.16985   0.74371   0.97180   1.000
    C343    C    0.66985   0.74371   0.97187   1.000
    C344    C    0.18619   0.72243   0.85623   1.000
    C345    C    0.68619   0.72244   0.85623   1.000
    C346    C    0.11205   0.67262   0.85345   1.000
    C347    C    0.61205   0.67262   0.85345   1.000
    C348    C    0.29006   0.76593   0.92393   1.000
    C349    C    0.79005   0.76593   0.92394   1.000
    C350    C    0.33540   0.75027   0.98262   1.000
    C351    C    0.83540   0.75027   0.98262   1.000
    C352    C    0.32015   0.68235   0.02063   1.000
    C353    C    0.82015   0.68235   0.02063   1.000
    C354    C    0.36255   0.67225   0.07542   1.000
    C355    C    0.86255   0.67225   0.07542   1.000
    C356    C    0.43635   0.79011   0.05531   1.000
    C357    C    0.93635   0.79011   0.05531   1.000
    C358    C    0.39576   0.80426   0.00000   1.000
    C359    C    0.89576   0.80426   0.00000   1.000
    N360    N    0.10987   0.23122   0.75500   1.000
    N361    N    0.60987   0.23122   0.75500   1.000
    N362    N    0.31400   0.19743   0.59628   1.000
    N363    N    0.81400   0.19744   0.59628   1.000
    N364    N    0.46871   0.21889   0.57806   1.000
    N365    N    0.96872   0.21889   0.57806   1.000
    N366    N    0.16978   0.22567   0.40677   1.000
    N367    N    0.66978   0.22567   0.40677   1.000
    N368    N    0.14021   0.26875   0.25500   1.000
    N369    N    0.64021   0.26875   0.25500   1.000
    N370    N    0.43613   0.30243   0.09620   1.000
    N371    N    0.93613   0.30244   0.09620   1.000
    N372    N    0.28141   0.28094   0.07806   1.000
    N373    N    0.78141   0.28094   0.07806   1.000
    N374    N    0.08032   0.27422   0.90676   1.000
    N375    N    0.58032   0.27422   0.90676   1.000
    N376    N    0.39013   0.76879   0.24494   1.000
    N377    N    0.89013   0.76879   0.24490   1.000
    N378    N    0.18600   0.80259   0.40369   1.000
    N379    N    0.68601   0.80258   0.40369   1.000
    N380    N    0.03129   0.78113   0.42192   1.000
    N381    N    0.53129   0.78113   0.42192   1.000
    N382    N    0.33023   0.77434   0.59321   1.000
    N383    N    0.83023   0.77434   0.59321   1.000
    N384    N    0.35979   0.73126   0.74497   1.000
    N385    N    0.85979   0.73126   0.74497   1.000
    N386    N    0.06387   0.69757   0.90377   1.000
    N387    N    0.56388   0.69757   0.90377   1.000
    N388    N    0.21859   0.71907   0.92191   1.000
    N389    N    0.71859   0.71907   0.92190   1.000
    N390    N    0.41969   0.72579   0.09321   1.000
    N391    N    0.91969   0.72579   0.09321   1.000
loop_
    _geom_bond_atom_site_label_1
    _geom_bond_atom_site_label_2
    _geom_bond_distance
    _geom_bond_site_symmetry_2
    _ccdc_geom_bond_type
    C358   C356      1.39556      .   S
    C358   H193      1.08347  1_554   S
    C358   C350      1.39716  1_554   S
    C359   C357      1.39559      .   S
    C359   H194      1.08347  1_554   S
    C359   C351      1.39714  1_554   S
    H76    C341      1.09707  1_554   S
    H167   C340      1.09789  1_554   S
    H187   C352      1.08952      .   S
    H188   C353      1.08953      .   S
    C269   C267      1.50826      .   S
    C269   C271      1.40074  1_554   S
    C269   C277      1.40018  1_554   S
    C268   C266      1.50825      .   S
    C268   C270      1.40071  1_554   S
    C268   C276      1.40020  1_554   S
    H64    C258      1.11277      .   S
    H65    C259      1.11251      .   S
    C352   C354      1.39019      .   S
    C352   C350      1.40074  1_554   S
    C353   C355      1.39022      .   S
    C353   C351      1.40072  1_554   S
    H174   C343      1.09732  1_554   S
    H79    C342      1.09861  1_554   S
    H95    C277      1.08942  1_554   S
    H94    C276      1.08942  1_554   S
    C260   C258      1.51988      .   S
    C260   H68       1.11370      .   S
    C260   N372      1.46732      .   S
    C260   H70       1.09748  1_554   S
    C261   C259      1.51991      .   S
    C261   H69       1.11369      .   S
    C261   N373      1.46730      .   S
    C261   H71       1.09750  1_554   S
    C259   N371      1.46517      .   S
    C259   H67       1.09775  1_554   S
    C258   N370      1.46516      .   S
    C258   H66       1.09779  1_554   S
    H60    C256      1.10363      .   S
    H61    C257      1.10365      .   S
    C356   H191      1.08758      .   S
    C356   N390      1.35196      .   S
    C357   H192      1.08758      .   S
    C357   N391      1.35197      .   S
    C354   N390      1.35319      .   S
    C354   H189      1.09096      .   S
    C355   N391      1.35317      .   S
    C355   H190      1.09095      .   S
    C266   H84       1.11430      .   S
    C266   N372      1.45392      .   S
    C266   H86       1.10184      .   S
    C267   H85       1.11430      .   S
    C267   N373      1.45396      .   S
    C267   H87       1.10183      .   S
    N372   C262      1.46754      .   S
    N373   C263      1.46679      .   S
    H100   C288      1.08864      .   S
    H101   C289      1.08866      .   S
    N371   C256      1.45361  1_655   S
    N371   C265      1.46768      .   S
    N370   C257      1.45384      .   S
    N370   C264      1.46755      .   S
    C256   H62       1.11264      .   S
    C256   C250      1.51045      .   S
    C257   H63       1.11265      .   S
    C257   C251      1.51039      .   S
    C289   C287      1.40274      .   S
    C289   C279      1.39810      .   S
    C288   C286      1.40276      .   S
    C288   C278      1.39812      .   S
    C287   C285      1.39969  1_565   S
    C286   C284      1.39969  1_565   S
    H83    C265      1.11185      .   S
    H82    C264      1.11179      .   S
    C263   C265      1.51767      .   S
    C263   H75       1.11116      .   S
    C263   H73       1.09241      .   S
    C262   C264      1.51761      .   S
    C262   H74       1.11104      .   S
    C262   H72       1.09721      .   S
    C264   H80       1.09901      .   S
    C265   H81       1.09901      .   S
    C251   C253      1.39984      .   S
    C251   C249      1.39979      .   S
    C250   C252      1.39983      .   S
    C250   C248      1.39980      .   S
    H56    C252      1.08954  1_655   S
    H57    C253      1.08953      .   S
    C279   C281      1.40185      .   S
    C278   C280      1.40120      .   S
    H55    C249      1.09067      .   S
    H54    C248      1.09067      .   S
    C285   H99       1.08719      .   S
    C285   C283      1.40592      .   S
    C284   H98       1.08719      .   S
    C284   C282      1.40592      .   S
    C253   C255      1.38841      .   S
    C252   C254      1.38842      .   S
    C249   C247      1.38970      .   S
    C248   C246      1.38845      .   S
    C280   C282      1.39625  1_565   S
    C280   H96       1.08717      .   S
    C281   C283      1.39614  1_565   S
    C281   H97       1.08662      .   S
    C255   H59       1.09082      .   S
    C255   N369      1.35307      .   S
    C254   H58       1.09075      .   S
    C254   N368      1.35307      .   S
    C246   N368      1.35257      .   S
    C246   H52       1.09048      .   S
    C247   N369      1.35200      .   S
    C247   H53       1.08973      .   S
    H108   C291      1.08978      .   S
    H107   C290      1.08978      .   S
    N377   C291      1.35238      .   S
    N377   C299      1.35346      .   S
    N376   C290      1.35209      .   S
    N376   C298      1.35310      .   S
    H114   C299      1.09077      .   S
    H113   C298      1.09075      .   S
    H47    C237      1.08666      .   S
    H46    C236      1.08664      .   S
    C290   C292      1.38962      .   S
    C291   C293      1.38958      .   S
    C298   C296      1.38792      .   S
    C299   C297      1.38856      .   S
    C239   C237      1.39632      .   S
    C239   C240      1.40559  1_655   S
    C238   C236      1.39635      .   S
    C238   C241      1.40584      .   S
    C237   C235      1.40194      .   S
    C236   C234      1.40194      .   S
    H131   C308      1.09777      .   S
    H132   C309      1.09902      .   S
    H48    C240      1.08720      .   S
    H49    C241      1.08718      .   S
    C293   H110      1.09069      .   S
    C293   C295      1.39986      .   S
    C292   H109      1.09067      .   S
    C292   C294      1.39982      .   S
    C296   H111      1.08990      .   S
    C296   C294      1.40012      .   S
    C297   H112      1.08953      .   S
    C297   C295      1.39982      .   S
    C241   C243      1.39994      .   S
    C240   C242      1.39994      .   S
    H128   C307      1.09728      .   S
    H127   C306      1.09687      .   S
    C235   C245      1.39797      .   S
    C234   C244      1.39796      .   S
    H129   C306      1.11086      .   S
    H130   C307      1.11100      .   S
    C295   C301      1.50916      .   S
    C294   C300      1.50919      .   S
    C308   C306      1.51762      .   S
    C308   H133      1.11195      .   S
    C308   N378      1.46849      .   S
    C309   C307      1.51759      .   S
    C309   H134      1.11178      .   S
    C309   N379      1.46752      .   S
    C306   N380      1.46818      .   S
    C307   N381      1.46762      .   S
    C242   C245      1.40251  1_455   S
    C243   C244      1.40269      .   S
    C245   H51       1.08876      .   S
    C244   H50       1.08866      .   S
    H137   C310      1.10189      .   S
    H138   C311      1.10186      .   S
    H41    C229      1.09093      .   S
    H40    C228      1.09090      .   S
    H117   C300      1.11255      .   S
    H118   C301      1.11254      .   S
    C300   N378      1.45398      .   S
    C300   H115      1.10510      .   S
    C301   N379      1.45396      .   S
    C301   H116      1.10510      .   S
    N378   C302      1.46526      .   S
    N379   C303      1.46529      .   S
    N366   C228      1.35316      .   S
    N366   C230      1.35198      .   S
    N367   C229      1.35317      .   S
    N367   C231      1.35199      .   S
    H42    C230      1.15405      .   S
    N381   C310      1.45397      .   S
    N381   C305      1.46735      .   S
    N380   C311      1.45375  1_455   S
    N380   C304      1.46734      .   S
    H136   C311      1.11432      .   S
    H135   C310      1.11430      .   S
    C311   C313      1.50815      .   S
    C310   C312      1.50813      .   S
    C228   C226      1.39032      .   S
    C229   C227      1.39028      .   S
    H43    C231      1.08760      .   S
    C231   C233      1.38586      .   S
    C230   C232      1.38587      .   S
    H124   C305      1.11384      .   S
    H123   C304      1.11384      .   S
    C302   C304      1.51995      .   S
    C302   H119      1.11252      .   S
    C302   H121      1.09766      .   S
    C303   C305      1.51994      .   S
    C303   H120      1.11218      .   S
    C303   H122      1.09764      .   S
    C305   H126      1.09722      .   S
    C304   H125      1.09721      .   S
    H146   C321      1.08939      .   S
    H145   C320      1.08897      .   S
    H24    C216      1.09741      .   S
    H25    C217      1.09722      .   S
    C226   H38       1.08948      .   S
    C226   C224      1.40051      .   S
    C227   H39       1.08948      .   S
    C227   C225      1.40052      .   S
    C313   C321      1.39994      .   S
    C313   C315      1.40048      .   S
    C312   C320      1.39993      .   S
    C312   C314      1.40048      .   S
    H21    C215      1.10185      .   S
    H20    C106      1.09762      .   S
    C232   C224      1.40019      .   S
    C232   H44       1.08951      .   S
    C233   C225      1.40018      .   S
    C233   H45       1.08910      .   S
    C320   C318      1.38665      .   S
    C321   C319      1.38669      .   S
    H139   C314      1.08949      .   S
    H140   C315      1.08950      .   S
    C225   C223      1.50815      .   S
    C224   C222      1.50821      .   S
    H18    C106      1.11256      .   S
    H19    C215      1.11257      .   S
    C314   C316      1.39029      .   S
    C315   C317      1.38887      .   S
    C216   C106      1.51995      .   S
    C216   H22       1.11384      .   S
    C216   N364      1.46748      .   S
    C217   C215      1.51996      .   S
    C217   H23       1.11386      .   S
    C217   N365      1.46747      .   S
    C106   N362      1.46511      .   S
    C215   N363      1.46513      .   S
    H15    C105      1.10371      .   S
    H14    C104      1.10370      .   S
    C318   H143      1.08755      .   S
    C318   N382      1.35197      .   S
    C319   H144      1.08755      .   S
    C319   N383      1.35195      .   S
    C317   N383      1.35364      .   S
    C317   H142      1.09196      .   S
    C316   N382      1.35317      .   S
    C316   H141      1.09089      .   S
    C223   H35       1.11430      .   S
    C223   N364      1.45398      .   S
    C223   H37       1.10186      .   S
    C222   H34       1.11428      .   S
    C222   N365      1.45375  1_455   S
    C222   H36       1.10186      .   S
    N365   C219      1.46765      .   S
    N364   C218      1.46765      .   S
    H151   C326      1.08867      .   S
    H152   C327      1.08867      .   S
    N362   C104      1.45388      .   S
    N362   C220      1.46763      .   S
    N363   C105      1.45387      .   S
    N363   C221      1.46765      .   S
    C105   H17       1.11267      .   S
    C105   C212      1.51043      .   S
    C104   H16       1.11266      .   S
    C104   C211      1.51044      .   S
    C326   C325      1.40253  1_455   S
    C326   C322      1.39807      .   S
    C327   C173      1.40271      .   S
    C327   C323      1.39807      .   S
    C173   C171      1.39997      .   S
    C325   C172      1.39995      .   S
    H32    C220      1.11179      .   S
    H33    C221      1.11179      .   S
    C218   C220      1.51758      .   S
    C218   H28       1.11100      .   S
    C218   H26       1.09713      .   S
    C219   C221      1.51762      .   S
    C219   H29       1.11097      .   S
    C219   H27       1.09710      .   S
    C221   H31       1.09775      .   S
    C220   H30       1.09904      .   S
    C211   C213      1.39986      .   S
    C211   C209      1.39946      .   S
    C212   C214      1.39987      .   S
    C212   C210      1.39946      .   S
    H10    C213      1.08957      .   S
    H11    C214      1.08956      .   S
    C323   C168      1.40195      .   S
    C322   C324      1.40199      .   S
    H8     C209      1.09045      .   S
    H9     C210      1.09045      .   S
    C172   H150      1.08717      .   S
    C172   C169      1.40561  1_655   S
    C171   H149      1.08719      .   S
    C171   C170      1.40585      .   S
    C213   C102      1.38845      .   S
    C214   C103      1.38843      .   S
    C209   C207      1.39031      .   S
    C210   C208      1.39029      .   S
    C168   C170      1.39635      .   S
    C168   H148      1.08663      .   S
    C324   C169      1.39633      .   S
    C324   H147      1.08653      .   S
    C103   H13       1.09076      .   S
    C103   N361      1.35291      .   S
    C102   H12       1.09076      .   S
    C102   N360      1.35293      .   S
    C208   N361      1.35190      .   S
    C208   H7        1.08972      .   S
    C207   N360      1.35190      .   S
    C207   H6        1.08973      .   S
    H153   C328      1.08980      .   S
    H154   C329      1.08972      .   S
    N384   C328      1.35208      .   S
    N384   C336      1.35298      .   S
    N385   C329      1.35206      .   S
    N385   C337      1.35314      .   S
    H159   C336      1.09069      .   S
    H160   C337      1.09080      .   S
    H0     C197      1.09539      .   S
    H1     C198      1.08662      .   S
    C329   C331      1.38961      .   S
    C328   C330      1.38959      .   S
    C336   C334      1.38871      .   S
    C337   C335      1.38846      .   S
    C199   C197      1.39611  1_565   S
    C199   C201      1.40583      .   S
    C200   C198      1.39611  1_565   S
    C200   C202      1.40583      .   S
    C198   C196      1.40198      .   S
    C197   C195      1.40198      .   S
    H179   C346      1.09900      .   S
    H180   C347      1.09901      .   S
    H3     C202      1.08717      .   S
    H2     C201      1.08717      .   S
    C330   H155      1.09068      .   S
    C330   C332      1.39985      .   S
    C331   H156      1.09073      .   S
    C331   C333      1.39987      .   S
    C334   H157      1.08952      .   S
    C334   C332      1.39987      .   S
    C335   H158      1.02157  1_655   S
    C335   C333      1.39983      .   S
    C202   C204      1.39982  1_565   S
    C201   C203      1.39982  1_565   S
    H176   C345      1.09719      .   S
    H175   C344      1.09720      .   S
    C196   C206      1.39801      .   S
    C195   C205      1.39801      .   S
    H177   C344      1.11100      .   S
    H178   C345      1.11099      .   S
    C332   C338      1.51042      .   S
    C333   C339      1.51046      .   S
    C347   C345      1.51762      .   S
    C347   H182      1.11178      .   S
    C347   N387      1.46754      .   S
    C346   C344      1.51763      .   S
    C346   H181      1.11179      .   S
    C346   N386      1.46754      .   S
    C344   N388      1.46754      .   S
    C345   N389      1.46734      .   S
    C203   C205      1.40275      .   S
    C204   C206      1.40275      .   S
    C205   H4        1.08866      .   S
    C206   H5        1.08865      .   S
    H186   C349      1.10249      .   S
    H185   C348      1.10183      .   S
    H91    C273      1.09093      .   S
    H90    C272      1.09093      .   S
    H163   C338      1.11266      .   S
    H164   C339      1.11264      .   S
    C339   N386      1.45358  1_655   S
    C339   H162      1.10364      .   S
    C338   N387      1.45382      .   S
    C338   H161      1.10280      .   S
    N386   C340      1.46517      .   S
    N387   C341      1.46517      .   S
    N374   C272      1.35321      .   S
    N374   C274      1.35195      .   S
    N375   C273      1.35319      .   S
    N375   C275      1.35195      .   S
    N389   C349      1.45395      .   S
    N389   C343      1.46756      .   S
    H183   C348      1.11435      .   S
    N388   C348      1.45396      .   S
    N388   C342      1.46645      .   S
    H184   C349      1.11431      .   S
    C348   C350      1.50826      .   S
    C349   C351      1.50812      .   S
    C272   C270      1.39018      .   S
    C273   C271      1.39021      .   S
    H93    C275      1.08789      .   S
    H92    C274      1.08753      .   S
    C274   C276      1.38612      .   S
    C275   C277      1.38615      .   S
    H77    C342      1.11366      .   S
    H78    C343      1.11387      .   S
    C340   C342      1.51989      .   S
    C340   H165      1.11245      .   S
    C341   C343      1.51991      .   S
    C341   H166      1.11255      .   S
    C271   H89       1.08933      .   S
    C270   H88       1.08949      .   S
