# CIF file generated by openbabel 2.4.90, see http://openbabel.sf.net
data_I
_chemical_name_common ''
_cell_length_a 18.655
_cell_length_b 17.343
_cell_length_c 20.282
_cell_angle_alpha 89.999
_cell_angle_beta 90.009
_cell_angle_gamma 98.643
_space_group_name_H-M_alt 'P 1'
_space_group_name_Hall 'P 1'
loop_
    _symmetry_equiv_pos_as_xyz
    x,y,z
loop_
    _atom_site_label
    _atom_site_type_symbol
    _atom_site_fract_x
    _atom_site_fract_y
    _atom_site_fract_z
    _atom_site_occupancy
    Ts0     Ts   0.25000   0.50001   0.49998   1.000
    Ts1     Ts   0.50000   0.00001   0.99999   1.000
    Ts2     Ts   0.75000   0.50001   0.49999   1.000
    Ts3     Ts   0.00000   0.00001   0.99998   1.000
