# CIF file generated by openbabel 2.4.90, see http://openbabel.sf.net
data_I
_chemical_name_common ''
_cell_length_a 18.655
_cell_length_b 17.343
_cell_length_c 20.282
_cell_angle_alpha 89.999
_cell_angle_beta 90.009
_cell_angle_gamma 98.643
_space_group_name_H-M_alt 'P 1'
_space_group_name_Hall 'P 1'
loop_
    _symmetry_equiv_pos_as_xyz
    x,y,z
loop_
    _atom_site_label
    _atom_site_type_symbol
    _atom_site_fract_x
    _atom_site_fract_y
    _atom_site_fract_z
    _atom_site_occupancy
    C0      C    0.05775   0.42171   0.76443   1.000
    C1      C    0.55776   0.42171   0.76443   1.000
    C2      C    0.40117   0.17910   0.84268   1.000
    C3      C    0.90117   0.17910   0.84268   1.000
    C4      C    0.30769   0.92172   0.73555   1.000
    C5      C    0.80769   0.92172   0.73555   1.000
    C6      C    0.34885   0.32091   0.34270   1.000
    C7      C    0.84885   0.32091   0.34270   1.000
    C8      C    0.44225   0.57830   0.23555   1.000
    C9      C    0.94225   0.57830   0.23555   1.000
    C10     C    0.09883   0.82092   0.15730   1.000
    C11     C    0.59883   0.82092   0.15730   1.000
    C12     C    0.19232   0.07829   0.26443   1.000
    C13     C    0.69232   0.07829   0.26443   1.000
    C14     C    0.15116   0.67911   0.65720   1.000
    C15     C    0.65116   0.67911   0.65720   1.000
