# CIF file generated by openbabel 2.4.90, see http://openbabel.sf.net
data_I
_chemical_name_common ''
_cell_length_a 18.655
_cell_length_b 17.343
_cell_length_c 20.282
_cell_angle_alpha 89.999
_cell_angle_beta 90.009
_cell_angle_gamma 98.643
_space_group_name_H-M_alt 'P 1'
_space_group_name_Hall 'P 1'
loop_
    _symmetry_equiv_pos_as_xyz
    x,y,z
loop_
    _atom_site_label
    _atom_site_type_symbol
    _atom_site_fract_x
    _atom_site_fract_y
    _atom_site_fract_z
    _atom_site_occupancy
    N0      N    0.39117   0.21468   0.58621   1.000
    N1      N    0.14092   0.71481   0.91378   1.000
    N2      N    0.96278   0.45430   0.32639   1.000
    N3      N    0.53722   0.54572   0.67359   1.000
    O4      O    0.37010   0.52202   0.57261   1.000
    N5      N    0.64106   0.71481   0.91378   1.000
    N6      N    0.21281   0.95429   0.17358   1.000
    N7      N    0.78720   0.04572   0.82638   1.000
    O8      O    0.62010   0.02203   0.92736   1.000
    N9      N    0.89117   0.21468   0.58598   1.000
    N10     N    0.35895   0.28520   0.08617   1.000
    N11     N    0.46278   0.45430   0.32639   1.000
    N12     N    0.03722   0.54571   0.67359   1.000
    O13     O    0.62990   0.47799   0.42735   1.000
    N14     N    0.71281   0.95429   0.17359   1.000
    N15     N    0.28720   0.04572   0.82630   1.000
    O16     O    0.87991   0.97799   0.07261   1.000
    N17     N    0.85895   0.28520   0.08616   1.000
    N18     N    0.10884   0.78534   0.41375   1.000
    N19     N    0.60884   0.78534   0.41375   1.000
    Zr20    Zr   0.74491   0.79617   0.68906   1.000
    O21     O    0.76973   0.89800   0.74087   1.000
    O22     O    0.85113   0.78789   0.60757   1.000
    O23     O    0.86284   0.76487   0.75155   1.000
    O24     O    0.66218   0.69566   0.67834   1.000
    Zr25    Zr   0.49495   0.29615   0.81088   1.000
    O26     O    0.41220   0.19565   0.82158   1.000
    O27     O    0.51977   0.39798   0.75909   1.000
    O28     O    0.60119   0.28783   0.89236   1.000
    O29     O    0.61294   0.26482   0.74835   1.000
    Zr30    Zr   0.99495   0.29615   0.81088   1.000
    O31     O    0.91220   0.19565   0.82160   1.000
    O32     O    0.01977   0.39798   0.75909   1.000
    O33     O    0.10119   0.28783   0.89237   1.000
    O34     O    0.11293   0.26482   0.74841   1.000
    Zr35    Zr   0.00506   0.70386   0.18908   1.000
    O36     O    0.08781   0.80436   0.17836   1.000
    O37     O    0.98024   0.60203   0.24088   1.000
    O38     O    0.88707   0.73519   0.25154   1.000
    O39     O    0.89882   0.71219   0.10759   1.000
    Zr40    Zr   0.50506   0.70386   0.18909   1.000
    O41     O    0.48023   0.60203   0.24089   1.000
    O42     O    0.58781   0.80436   0.17837   1.000
    O43     O    0.38707   0.73519   0.25155   1.000
    O44     O    0.39879   0.71219   0.10759   1.000
    Zr45    Zr   0.75510   0.20384   0.31089   1.000
    O46     O    0.73028   0.10202   0.25909   1.000
    O47     O    0.83783   0.30436   0.32161   1.000
    O48     O    0.63713   0.23514   0.24841   1.000
    O49     O    0.64888   0.21213   0.39239   1.000
    Zr50    Zr   0.24491   0.79617   0.68907   1.000
    O51     O    0.26973   0.89800   0.74086   1.000
    O52     O    0.16218   0.69566   0.67835   1.000
    O53     O    0.35112   0.78789   0.60758   1.000
    O54     O    0.36287   0.76487   0.75156   1.000
    Zr55    Zr   0.25510   0.20384   0.31089   1.000
    O56     O    0.23027   0.10202   0.25909   1.000
    O57     O    0.33782   0.30435   0.32161   1.000
    O58     O    0.13713   0.23514   0.24841   1.000
    O59     O    0.14888   0.21213   0.39233   1.000
loop_
    _geom_bond_atom_site_label_1
    _geom_bond_atom_site_label_2
    _geom_bond_distance
    _geom_bond_site_symmetry_2
    _ccdc_geom_bond_type
    N2     O4        9.02009  1_655   S
    N3     O4        3.70077      .   S
    N6     O8        9.02095  1_564   S
    N7     O8        3.70100      .   S
    N12    O13       9.02027  1_455   S
    N11    O13       3.70057      .   S
    N15    O16       9.02200  1_446   S
    N14    O16       3.70099      .   S
    Zr20   O21       2.04730      .   S
    N7     O21       3.07028  1_545   S
    Zr20   O22       2.60098      .   S
    N18    O22       6.21601  1_455   S
    Zr20   O23       2.66436      .   S
    N1     O23       6.31178  1_455   S
    Zr20   O24       2.15846      .   S
    N3     O24       3.22246      .   S
    Zr25   O26       2.15866      .   S
    N15    O26       3.22272      .   S
    Zr25   O27       2.04723      .   S
    N3     O27       3.07026      .   S
    Zr25   O28       2.60091      .   S
    N17    O28       6.21557  1_554   S
    Zr25   O29       2.66625      .   S
    N9     O29       6.31695      .   S
    Zr30   O31       2.15869      .   S
    N7     O31       3.22275      .   S
    Zr30   O32       2.04723  1_655   S
    N12    O32       3.07026      .   S
    Zr30   O33       2.60096  1_655   S
    N10    O33       6.21574  1_554   S
    Zr30   O34       2.66568  1_655   S
    N0     O34       6.31513      .   S
    Zr35   O36       2.15865      .   S
    N6     O36       3.22270      .   S
    Zr35   O37       2.04733  1_455   S
    N2     O37       3.07035      .   S
    Zr35   O38       2.66557  1_455   S
    N19    O38       6.31534      .   S
    Zr35   O39       2.60104  1_455   S
    N5     O39       6.21580  1_556   S
    Zr40   O41       2.04729      .   S
    N11    O41       3.07031      .   S
    Zr40   O42       2.15868      .   S
    N14    O42       3.22271      .   S
    Zr40   O43       2.66558      .   S
    N18    O43       6.31517      .   S
    Zr40   O44       2.60159      .   S
    N1     O44       6.21735  1_556   S
    Zr45   O46       2.04722      .   S
    N14    O46       3.07022  1_565   S
    Zr45   O47       2.15844      .   S
    N2     O47       3.22239      .   S
    Zr45   O48       2.66489      .   S
    N10    O48       6.31357      .   S
    Zr45   O49       2.60105      .   S
    N0     O49       6.21604      .   S
    Zr50   O51       2.04703      .   S
    N15    O51       3.06949  1_545   S
    Zr50   O52       2.15847      .   S
    N12    O52       3.22244      .   S
    Zr50   O53       2.60102      .   S
    N19    O53       6.21604      .   S
    Zr50   O54       2.66488      .   S
    N5     O54       6.31341      .   S
    Zr55   O56       2.04723      .   S
    N6     O56       3.07026  1_565   S
    Zr55   O57       2.15844      .   S
    N11    O57       3.22243      .   S
    Zr55   O58       2.66491      .   S
    N17    O58       6.31366  1_655   S
    Zr55   O59       2.60029      .   S
    N9     O59       6.21376  1_655   S
