# CIF file generated by openbabel 2.4.90, see http://openbabel.sf.net
data_I
_chemical_name_common ''
_cell_length_a 18.655
_cell_length_b 17.343
_cell_length_c 20.282
_cell_angle_alpha 89.999
_cell_angle_beta 90.009
_cell_angle_gamma 98.643
_space_group_name_H-M_alt 'P 1'
_space_group_name_Hall 'P 1'
loop_
    _symmetry_equiv_pos_as_xyz
    x,y,z
loop_
    _atom_site_label
    _atom_site_type_symbol
    _atom_site_fract_x
    _atom_site_fract_y
    _atom_site_fract_z
    _atom_site_occupancy
    C0      C    0.03148   0.27337   0.81630   1.000
    C1      C    0.53148   0.27338   0.81630   1.000
    C2      C    0.21856   0.22660   0.31636   1.000
    C3      C    0.71856   0.22661   0.31636   1.000
    C4      C    0.46853   0.72664   0.18362   1.000
    C5      C    0.96854   0.72664   0.18362   1.000
    C6      C    0.28145   0.77341   0.68362   1.000
    C7      C    0.78146   0.77341   0.68362   1.000
    C8      C    0.40019   0.05244   0.76000   1.000
    C9      C    0.90019   0.05244   0.76079   1.000
    C10     C    0.19062   0.93105   0.81259   1.000
    C11     C    0.69062   0.93106   0.81259   1.000
    C12     C    0.27119   0.15268   0.90450   1.000
    C13     C    0.77119   0.15268   0.90450   1.000
    C14     C    0.08313   0.96874   0.85145   1.000
    C15     C    0.58313   0.96874   0.85145   1.000
    C16     C    0.13198   0.92276   0.91218   1.000
    C17     C    0.63198   0.92276   0.91218   1.000
    C18     C    0.47334   0.01751   0.88131   1.000
    C19     C    0.97335   0.01751   0.88131   1.000
    C20     C    0.11706   0.96030   0.03447   1.000
    C21     C    0.61707   0.96029   0.03447   1.000
    C22     C    0.05250   0.11937   0.75652   1.000
    C23     C    0.55251   0.11938   0.75652   1.000
    C24     C    0.12958   0.06739   0.67117   1.000
    C25     C    0.62958   0.06739   0.67117   1.000
    C26     C    0.25579   0.29603   0.66000   1.000
    C27     C    0.75579   0.29603   0.66000   1.000
    C28     C    0.17394   0.33924   0.74766   1.000
    C29     C    0.67394   0.33924   0.74766   1.000
    C30     C    0.21223   0.16196   0.55497   1.000
    C31     C    0.71223   0.16196   0.55497   1.000
    C32     C    0.24220   0.08903   0.60466   1.000
    C33     C    0.74221   0.08904   0.60466   1.000
    C34     C    0.35272   0.13157   0.51830   1.000
    C35     C    0.85272   0.13157   0.51830   1.000
    C36     C    0.31091   0.21294   0.49330   1.000
    C37     C    0.81091   0.21295   0.49300   1.000
    C38     C    0.41280   0.30546   0.53567   1.000
    C39     C    0.91281   0.30547   0.53567   1.000
    C40     C    0.44275   0.23914   0.47860   1.000
    C41     C    0.94276   0.23915   0.47861   1.000
    C42     C    0.47175   0.20070   0.68040   1.000
    C43     C    0.97175   0.20070   0.68040   1.000
    C44     C    0.43136   0.28327   0.65766   1.000
    C45     C    0.93136   0.28328   0.65765   1.000
    C46     C    0.33860   0.17836   0.69567   1.000
    C47     C    0.83861   0.17837   0.69560   1.000
    C48     C    0.36797   0.11014   0.63997   1.000
    C49     C    0.86797   0.11015   0.63997   1.000
    C50     C    0.03743   0.32951   0.57792   1.000
    C51     C    0.53743   0.32951   0.57792   1.000
    C52     C    0.06972   0.25321   0.62080   1.000
    C53     C    0.56973   0.25321   0.62080   1.000
    C54     C    0.02436   0.13831   0.49240   1.000
    C55     C    0.52436   0.13831   0.49240   1.000
    C56     C    0.10196   0.12133   0.39232   1.000
    C57     C    0.60197   0.12132   0.39232   1.000
    C58     C    0.23294   0.33144   0.42000   1.000
    C59     C    0.73294   0.33144   0.42899   1.000
    C60     C    0.16044   0.35828   0.52674   1.000
    C61     C    0.66044   0.35828   0.52670   1.000
    C62     C    0.34976   0.44752   0.26079   1.000
    C63     C    0.84977   0.44752   0.26079   1.000
    C64     C    0.05931   0.56900   0.31259   1.000
    C65     C    0.55932   0.56900   0.31260   1.000
    C66     C    0.47885   0.34734   0.40450   1.000
    C67     C    0.97885   0.34734   0.40451   1.000
    C68     C    0.16682   0.53143   0.35149   1.000
    C69     C    0.66682   0.53143   0.35149   1.000
    C70     C    0.11795   0.57730   0.41226   1.000
    C71     C    0.61795   0.57730   0.41226   1.000
    C72     C    0.27659   0.48254   0.38130   1.000
    C73     C    0.77659   0.48254   0.38130   1.000
    C74     C    0.13297   0.53978   0.53450   1.000
    C75     C    0.63297   0.53978   0.53450   1.000
    C76     C    0.19761   0.38057   0.25646   1.000
    C77     C    0.69761   0.38057   0.25646   1.000
    C78     C    0.12058   0.43250   0.17101   1.000
    C79     C    0.62058   0.43250   0.17101   1.000
    C80     C    0.99433   0.20387   0.15992   1.000
    C81     C    0.49433   0.20387   0.15992   1.000
    C82     C    0.07614   0.16072   0.24767   1.000
    C83     C    0.57614   0.16072   0.24768   1.000
    C84     C    0.03786   0.33779   0.05483   1.000
    C85     C    0.53787   0.33779   0.05483   1.000
    C86     C    0.00796   0.41082   0.10444   1.000
    C87     C    0.50797   0.41082   0.10444   1.000
    C88     C    0.39732   0.36816   0.01810   1.000
    C89     C    0.89732   0.36816   0.01816   1.000
    C90     C    0.43913   0.28675   0.99322   1.000
    C91     C    0.93913   0.28676   0.99322   1.000
    C92     C    0.33728   0.19429   0.03570   1.000
    C93     C    0.83728   0.19430   0.03570   1.000
    C94     C    0.30727   0.26051   0.97862   1.000
    C95     C    0.80727   0.26052   0.97862   1.000
    C96     C    0.27847   0.29928   0.18039   1.000
    C97     C    0.77847   0.29928   0.18000   1.000
    C98     C    0.31885   0.21668   0.15772   1.000
    C99     C    0.81885   0.21667   0.15770   1.000
    C100    C    0.41164   0.32166   0.19557   1.000
    C101    C    0.91164   0.32166   0.19558   1.000
    C102    C    0.38220   0.38978   0.13982   1.000
    C103    C    0.88220   0.38978   0.13980   1.000
    C104    C    0.21262   0.17036   0.07801   1.000
    C105    C    0.71262   0.17036   0.07801   1.000
    C106    C    0.18041   0.24674   0.12084   1.000
    C107    C    0.68041   0.24674   0.12084   1.000
    C108    C    0.22586   0.36147   0.99233   1.000
    C109    C    0.72586   0.36147   0.99230   1.000
    C110    C    0.14824   0.37847   0.89225   1.000
    C111    C    0.64824   0.37848   0.89225   1.000
    C112    C    0.01706   0.16854   0.92906   1.000
    C113    C    0.51706   0.16853   0.92900   1.000
    C114    C    0.08954   0.14169   0.02683   1.000
    C115    C    0.58954   0.14168   0.02683   1.000
    C116    C    0.09981   0.94757   0.23918   1.000
    C117    C    0.59981   0.94757   0.23918   1.000
    C118    C    0.30939   0.06895   0.18739   1.000
    C119    C    0.80938   0.06896   0.18739   1.000
    C120    C    0.22881   0.84733   0.09547   1.000
    C121    C    0.72881   0.84733   0.09547   1.000
    C122    C    0.41687   0.03127   0.14853   1.000
    C123    C    0.91687   0.03128   0.14853   1.000
    C124    C    0.36802   0.07725   0.08780   1.000
    C125    C    0.86802   0.07725   0.08780   1.000
    C126    C    0.02665   0.98251   0.11867   1.000
    C127    C    0.52666   0.98251   0.11867   1.000
    C128    C    0.38293   0.03972   0.96551   1.000
    C129    C    0.88294   0.03972   0.96551   1.000
    C130    C    0.44749   0.88064   0.24344   1.000
    C131    C    0.94749   0.88064   0.24344   1.000
    C132    C    0.37042   0.93262   0.32879   1.000
    C133    C    0.87042   0.93262   0.32879   1.000
    C134    C    0.24422   0.70398   0.33998   1.000
    C135    C    0.74422   0.70398   0.33998   1.000
    C136    C    0.32606   0.66077   0.25231   1.000
    C137    C    0.82606   0.66077   0.25231   1.000
    C138    C    0.28777   0.83804   0.44500   1.000
    C139    C    0.78777   0.83805   0.44500   1.000
    C140    C    0.25780   0.91098   0.39532   1.000
    C141    C    0.75780   0.91098   0.39532   1.000
    C142    C    0.14729   0.86844   0.48167   1.000
    C143    C    0.64729   0.86844   0.48160   1.000
    C144    C    0.18910   0.78706   0.50668   1.000
    C145    C    0.68910   0.78706   0.50668   1.000
    C146    C    0.08719   0.69455   0.46430   1.000
    C147    C    0.58720   0.69455   0.46430   1.000
    C148    C    0.05725   0.76087   0.52136   1.000
    C149    C    0.55725   0.76087   0.52136   1.000
    C150    C    0.02825   0.79933   0.31957   1.000
    C151    C    0.52825   0.79933   0.31957   1.000
    C152    C    0.06864   0.71675   0.34232   1.000
    C153    C    0.56864   0.71675   0.34232   1.000
    C154    C    0.16140   0.82165   0.30431   1.000
    C155    C    0.66140   0.82165   0.30431   1.000
    C156    C    0.13204   0.88987   0.36001   1.000
    C157    C    0.63204   0.88987   0.36000   1.000
    C158    C    0.46257   0.67051   0.42205   1.000
    C159    C    0.96257   0.67051   0.42200   1.000
    C160    C    0.43028   0.74681   0.37918   1.000
    C161    C    0.93029   0.74682   0.37918   1.000
    C162    C    0.47564   0.86171   0.50758   1.000
    C163    C    0.97564   0.86171   0.50758   1.000
    C164    C    0.39804   0.87869   0.60766   1.000
    C165    C    0.89804   0.87869   0.60766   1.000
    C166    C    0.26706   0.66858   0.57098   1.000
    C167    C    0.76707   0.66858   0.57098   1.000
    C168    C    0.33956   0.64174   0.47324   1.000
    C169    C    0.83956   0.64174   0.47320   1.000
    C170    C    0.15024   0.55248   0.73918   1.000
    C171    C    0.65024   0.55249   0.73919   1.000
    C172    C    0.44068   0.43101   0.68738   1.000
    C173    C    0.94069   0.43101   0.68738   1.000
    C174    C    0.02115   0.65267   0.59547   1.000
    C175    C    0.52115   0.65267   0.59547   1.000
    C176    C    0.33318   0.46858   0.64848   1.000
    C177    C    0.83318   0.46859   0.64849   1.000
    C178    C    0.38205   0.42272   0.58771   1.000
    C179    C    0.88205   0.42272   0.58772   1.000
    C180    C    0.22341   0.51748   0.61860   1.000
    C181    C    0.72341   0.51748   0.61868   1.000
    C182    C    0.36703   0.46024   0.46540   1.000
    C183    C    0.86703   0.46024   0.46548   1.000
    C184    C    0.30239   0.61943   0.74351   1.000
    C185    C    0.80239   0.61944   0.74352   1.000
    C186    C    0.37942   0.56750   0.82896   1.000
    C187    C    0.87942   0.56750   0.82897   1.000
    C188    C    0.50567   0.79613   0.84006   1.000
    C189    C    0.00000   0.79614   0.84006   1.000
    C190    C    0.42386   0.83929   0.75230   1.000
    C191    C    0.92386   0.83929   0.75230   1.000
    C192    C    0.46214   0.66221   0.94510   1.000
    C193    C    0.96215   0.66222   0.94515   1.000
    C194    C    0.49204   0.58918   0.89553   1.000
    C195    C    0.99204   0.58919   0.89554   1.000
    C196    C    0.10268   0.63185   0.98180   1.000
    C197    C    0.60268   0.63184   0.98182   1.000
    C198    C    0.06088   0.71325   0.00676   1.000
    C199    C    0.56088   0.71325   0.00670   1.000
    C200    C    0.16273   0.80571   0.96422   1.000
    C201    C    0.66273   0.80571   0.96422   1.000
    C202    C    0.19274   0.73949   0.02135   1.000
    C203    C    0.69274   0.73949   0.02135   1.000
    C204    C    0.22154   0.70072   0.81958   1.000
    C205    C    0.72154   0.70073   0.81958   1.000
    C206    C    0.18116   0.78333   0.84226   1.000
    C207    C    0.68115   0.78333   0.84226   1.000
    C208    C    0.08836   0.67835   0.80440   1.000
    C209    C    0.58837   0.67835   0.80440   1.000
    C210    C    0.11780   0.61022   0.86015   1.000
    C211    C    0.61781   0.61022   0.86015   1.000
    C212    C    0.28739   0.82965   0.92190   1.000
    C213    C    0.78738   0.82965   0.92196   1.000
    C214    C    0.31959   0.75326   0.87913   1.000
    C215    C    0.81959   0.75327   0.87910   1.000
    C216    C    0.27416   0.63853   0.00763   1.000
    C217    C    0.77416   0.63853   0.00763   1.000
    C218    C    0.35177   0.62153   0.10772   1.000
    C219    C    0.85177   0.62153   0.10772   1.000
    C220    C    0.48294   0.83148   0.07092   1.000
    C221    C    0.98294   0.83148   0.07092   1.000
    C222    C    0.41046   0.85832   0.97314   1.000
    C223    C    0.91046   0.85833   0.97314   1.000
    C224    C    0.40117   0.17910   0.84268   1.000
    C225    C    0.90117   0.17910   0.84268   1.000
    C226    C    0.34222   0.11004   0.83386   1.000
    C227    C    0.84222   0.11005   0.83386   1.000
    C228    C    0.35094   0.04984   0.78982   1.000
    C229    C    0.85094   0.04984   0.78982   1.000
    C230    C    0.29613   0.98613   0.78242   1.000
    C231    C    0.79613   0.98613   0.78242   1.000
    C232    C    0.30769   0.92172   0.73555   1.000
    C233    C    0.80769   0.92172   0.73555   1.000
    C234    C    0.23196   0.98170   0.81947   1.000
    C235    C    0.73196   0.98170   0.81947   1.000
    C236    C    0.22329   0.04167   0.86359   1.000
    C237    C    0.72329   0.04167   0.86359   1.000
    C238    C    0.27823   0.10591   0.87042   1.000
    C239    C    0.77823   0.10591   0.87042   1.000
    C240    C    0.10755   0.97544   0.90106   1.000
    C241    C    0.60755   0.97544   0.90106   1.000
    C242    C    0.05150   0.98712   0.95190   1.000
    C243    C    0.55151   0.98712   0.95191   1.000
    C244    C    0.48518   0.00938   0.93334   1.000
    C245    C    0.98519   0.00938   0.93334   1.000
    C246    C    0.06578   0.97775   0.01909   1.000
    C247    C    0.56579   0.97775   0.01909   1.000
    C248    C    0.09850   0.15633   0.73416   1.000
    C249    C    0.59850   0.15633   0.73416   1.000
    C250    C    0.14121   0.12836   0.68620   1.000
    C251    C    0.64121   0.12836   0.68620   1.000
    C252    C    0.19808   0.17890   0.65729   1.000
    C253    C    0.69808   0.17891   0.65729   1.000
    C254    C    0.21099   0.25570   0.68063   1.000
    C255    C    0.71099   0.25570   0.68063   1.000
    C256    C    0.16645   0.27959   0.72899   1.000
    C257    C    0.66645   0.27959   0.72899   1.000
    C258    C    0.24163   0.15294   0.60089   1.000
    C259    C    0.74163   0.15294   0.60089   1.000
    C260    C    0.34615   0.19258   0.53079   1.000
    C261    C    0.84615   0.19259   0.53079   1.000
    C262    C    0.41992   0.24345   0.52809   1.000
    C263    C    0.91992   0.24346   0.52809   1.000
    C264    C    0.43636   0.22235   0.64375   1.000
    C265    C    0.93637   0.22236   0.64375   1.000
    C266    C    0.36223   0.17256   0.64661   1.000
    C267    C    0.86223   0.17256   0.64661   1.000
    C268    C    0.04014   0.26580   0.57599   1.000
    C269    C    0.54015   0.26580   0.57599   1.000
    C270    C    0.08549   0.25013   0.51732   1.000
    C271    C    0.58549   0.25013   0.51732   1.000
    C272    C    0.07030   0.18217   0.47938   1.000
    C273    C    0.57031   0.18216   0.47938   1.000
    C274    C    0.11270   0.17207   0.42459   1.000
    C275    C    0.61270   0.17207   0.42459   1.000
    C276    C    0.18639   0.29004   0.44463   1.000
    C277    C    0.68639   0.29004   0.44463   1.000
    C278    C    0.14579   0.30418   0.49933   1.000
    C279    C    0.64579   0.30418   0.49933   1.000
    C280    C    0.34885   0.32091   0.34270   1.000
    C281    C    0.84885   0.32091   0.34270   1.000
    C282    C    0.40778   0.38995   0.33386   1.000
    C283    C    0.90779   0.38996   0.33386   1.000
    C284    C    0.39903   0.45015   0.28982   1.000
    C285    C    0.89904   0.45015   0.28982   1.000
    C286    C    0.45382   0.51389   0.28242   1.000
    C287    C    0.95383   0.51389   0.28242   1.000
    C288    C    0.44225   0.57830   0.23555   1.000
    C289    C    0.94225   0.57830   0.23555   1.000
    C290    C    0.01799   0.51835   0.31948   1.000
    C291    C    0.51800   0.51835   0.31948   1.000
    C292    C    0.02670   0.45836   0.36359   1.000
    C293    C    0.52670   0.45836   0.36359   1.000
    C294    C    0.47178   0.39411   0.37042   1.000
    C295    C    0.97179   0.39411   0.37042   1.000
    C296    C    0.14241   0.52465   0.40110   1.000
    C297    C    0.64242   0.52466   0.40110   1.000
    C298    C    0.19848   0.51295   0.45190   1.000
    C299    C    0.69848   0.51296   0.45193   1.000
    C300    C    0.26478   0.49065   0.43334   1.000
    C301    C    0.76478   0.49065   0.43334   1.000
    C302    C    0.18424   0.52230   0.51911   1.000
    C303    C    0.68424   0.52230   0.51911   1.000
    C304    C    0.15162   0.34361   0.23400   1.000
    C305    C    0.65162   0.34361   0.23409   1.000
    C306    C    0.10893   0.37155   0.18612   1.000
    C307    C    0.60893   0.37155   0.18612   1.000
    C308    C    0.05206   0.32099   0.15717   1.000
    C309    C    0.55206   0.32099   0.15717   1.000
    C310    C    0.03913   0.24421   0.18055   1.000
    C311    C    0.53913   0.24421   0.18055   1.000
    C312    C    0.08364   0.22036   0.22896   1.000
    C313    C    0.58364   0.22036   0.22896   1.000
    C314    C    0.00850   0.34690   0.10074   1.000
    C315    C    0.50851   0.34690   0.10074   1.000
    C316    C    0.40392   0.30717   0.03071   1.000
    C317    C    0.90392   0.30718   0.03071   1.000
    C318    C    0.33015   0.25629   0.02811   1.000
    C319    C    0.83016   0.25629   0.02811   1.000
    C320    C    0.31381   0.27757   0.14374   1.000
    C321    C    0.81381   0.27757   0.14370   1.000
    C322    C    0.38795   0.32738   0.14652   1.000
    C323    C    0.88795   0.32738   0.14653   1.000
    C324    C    0.20995   0.23407   0.07604   1.000
    C325    C    0.70995   0.23407   0.07604   1.000
    C326    C    0.16461   0.24974   0.01735   1.000
    C327    C    0.66461   0.24974   0.01735   1.000
    C328    C    0.17986   0.31766   0.97934   1.000
    C329    C    0.67986   0.31766   0.97934   1.000
    C330    C    0.13746   0.32776   0.92455   1.000
    C331    C    0.63746   0.32776   0.92455   1.000
    C332    C    0.06365   0.20990   0.94466   1.000
    C333    C    0.56365   0.20990   0.94466   1.000
    C334    C    0.10424   0.19575   0.99939   1.000
    C335    C    0.60425   0.19575   0.99939   1.000
    C336    C    0.09883   0.82092   0.15730   1.000
    C337    C    0.59883   0.82092   0.15730   1.000
    C338    C    0.15778   0.88997   0.16612   1.000
    C339    C    0.65778   0.88997   0.16612   1.000
    C340    C    0.14906   0.95017   0.21010   1.000
    C341    C    0.64907   0.95017   0.21015   1.000
    C342    C    0.20387   0.01388   0.21756   1.000
    C343    C    0.70387   0.01388   0.21756   1.000
    C344    C    0.19232   0.07829   0.26443   1.000
    C345    C    0.69232   0.07829   0.26443   1.000
    C346    C    0.26805   0.01832   0.18050   1.000
    C347    C    0.76805   0.01832   0.18050   1.000
    C348    C    0.27671   0.95834   0.13639   1.000
    C349    C    0.77672   0.95834   0.13639   1.000
    C350    C    0.22177   0.89410   0.12955   1.000
    C351    C    0.72177   0.89411   0.12955   1.000
    C352    C    0.39245   0.02457   0.09891   1.000
    C353    C    0.89246   0.02457   0.09891   1.000
    C354    C    0.44849   0.01289   0.04807   1.000
    C355    C    0.94850   0.01289   0.04807   1.000
    C356    C    0.01481   0.99063   0.06664   1.000
    C357    C    0.51482   0.99063   0.06664   1.000
    C358    C    0.43421   0.02227   0.98088   1.000
    C359    C    0.93422   0.02226   0.98080   1.000
    C360    C    0.40150   0.84368   0.26581   1.000
    C361    C    0.90150   0.84368   0.26581   1.000
    C362    C    0.35879   0.87166   0.31372   1.000
    C363    C    0.85879   0.87166   0.31372   1.000
    C364    C    0.30192   0.82111   0.34268   1.000
    C365    C    0.80192   0.82111   0.34268   1.000
    C366    C    0.28901   0.74431   0.31930   1.000
    C367    C    0.78901   0.74431   0.31935   1.000
    C368    C    0.33355   0.72042   0.27098   1.000
    C369    C    0.83355   0.72042   0.27098   1.000
    C370    C    0.25838   0.84707   0.39900   1.000
    C371    C    0.75838   0.84707   0.39900   1.000
    C372    C    0.15385   0.80743   0.46919   1.000
    C373    C    0.65385   0.80743   0.46919   1.000
    C374    C    0.08008   0.75656   0.47188   1.000
    C375    C    0.58009   0.75656   0.47188   1.000
    C376    C    0.06363   0.77767   0.35620   1.000
    C377    C    0.56364   0.77767   0.35623   1.000
    C378    C    0.13778   0.82746   0.35330   1.000
    C379    C    0.63778   0.82746   0.35337   1.000
    C380    C    0.45985   0.73422   0.42399   1.000
    C381    C    0.95986   0.73422   0.42399   1.000
    C382    C    0.41452   0.74988   0.48266   1.000
    C383    C    0.91452   0.74989   0.48266   1.000
    C384    C    0.42970   0.81785   0.52060   1.000
    C385    C    0.92970   0.81785   0.52060   1.000
    C386    C    0.38730   0.82794   0.57539   1.000
    C387    C    0.88730   0.82794   0.57530   1.000
    C388    C    0.31361   0.70998   0.55535   1.000
    C389    C    0.81361   0.70998   0.55535   1.000
    C390    C    0.35421   0.69584   0.50060   1.000
    C391    C    0.85421   0.69584   0.50060   1.000
    C392    C    0.15116   0.67911   0.65720   1.000
    C393    C    0.65116   0.67911   0.65720   1.000
    C394    C    0.09222   0.61006   0.66612   1.000
    C395    C    0.59222   0.61006   0.66612   1.000
    C396    C    0.10096   0.54986   0.71016   1.000
    C397    C    0.60097   0.54986   0.71016   1.000
    C398    C    0.04617   0.48612   0.71756   1.000
    C399    C    0.54618   0.48612   0.71756   1.000
    C400    C    0.05775   0.42171   0.76443   1.000
    C401    C    0.55776   0.42171   0.76443   1.000
    C402    C    0.48200   0.48166   0.68050   1.000
    C403    C    0.98201   0.48167   0.68050   1.000
    C404    C    0.47330   0.54166   0.63639   1.000
    C405    C    0.97330   0.54166   0.63639   1.000
    C406    C    0.02822   0.60590   0.62955   1.000
    C407    C    0.52822   0.60590   0.62955   1.000
    C408    C    0.35758   0.47536   0.59887   1.000
    C409    C    0.85759   0.47536   0.59888   1.000
    C410    C    0.30152   0.48706   0.54805   1.000
    C411    C    0.80152   0.48707   0.54805   1.000
    C412    C    0.23522   0.50937   0.56664   1.000
    C413    C    0.73522   0.50937   0.56664   1.000
    C414    C    0.31576   0.47771   0.48087   1.000
    C415    C    0.81576   0.47771   0.48087   1.000
    C416    C    0.34839   0.65640   0.76589   1.000
    C417    C    0.84839   0.65640   0.76589   1.000
    C418    C    0.39108   0.62845   0.81385   1.000
    C419    C    0.89108   0.62846   0.81385   1.000
    C420    C    0.44794   0.67902   0.84281   1.000
    C421    C    0.94795   0.67902   0.84281   1.000
    C422    C    0.46088   0.75580   0.81943   1.000
    C423    C    0.96088   0.75580   0.81943   1.000
    C424    C    0.41636   0.77965   0.77100   1.000
    C425    C    0.91636   0.77966   0.77102   1.000
    C426    C    0.49149   0.65310   0.89924   1.000
    C427    C    0.99150   0.65311   0.89924   1.000
    C428    C    0.09608   0.69283   0.96926   1.000
    C429    C    0.59609   0.69283   0.96926   1.000
    C430    C    0.16985   0.74371   0.97180   1.000
    C431    C    0.66985   0.74371   0.97187   1.000
    C432    C    0.18619   0.72243   0.85623   1.000
    C433    C    0.68619   0.72244   0.85623   1.000
    C434    C    0.11205   0.67262   0.85345   1.000
    C435    C    0.61205   0.67262   0.85345   1.000
    C436    C    0.29006   0.76593   0.92393   1.000
    C437    C    0.79005   0.76593   0.92394   1.000
    C438    C    0.33540   0.75027   0.98262   1.000
    C439    C    0.83540   0.75027   0.98262   1.000
    C440    C    0.32015   0.68235   0.02063   1.000
    C441    C    0.82015   0.68235   0.02063   1.000
    C442    C    0.36255   0.67225   0.07542   1.000
    C443    C    0.86255   0.67225   0.07542   1.000
    C444    C    0.43635   0.79011   0.05531   1.000
    C445    C    0.93635   0.79011   0.05531   1.000
    C446    C    0.39576   0.80426   0.00000   1.000
    C447    C    0.89576   0.80426   0.00000   1.000
    C448    C    0.10987   0.23122   0.75500   1.000
    C449    C    0.60987   0.23122   0.75500   1.000
    C450    C    0.31400   0.19743   0.59628   1.000
    C451    C    0.81400   0.19744   0.59628   1.000
    C452    C    0.46871   0.21889   0.57806   1.000
    C453    C    0.96872   0.21889   0.57806   1.000
    C454    C    0.16978   0.22567   0.40677   1.000
    C455    C    0.66978   0.22567   0.40677   1.000
    C456    C    0.14021   0.26875   0.25500   1.000
    C457    C    0.64021   0.26875   0.25500   1.000
    C458    C    0.43613   0.30243   0.09620   1.000
    C459    C    0.93613   0.30244   0.09620   1.000
    C460    C    0.28141   0.28094   0.07806   1.000
    C461    C    0.78141   0.28094   0.07806   1.000
    C462    C    0.08032   0.27422   0.90676   1.000
    C463    C    0.58032   0.27422   0.90676   1.000
    C464    C    0.39013   0.76879   0.24494   1.000
    C465    C    0.89013   0.76879   0.24490   1.000
    C466    C    0.18600   0.80259   0.40369   1.000
    C467    C    0.68601   0.80258   0.40369   1.000
    C468    C    0.03129   0.78113   0.42192   1.000
    C469    C    0.53129   0.78113   0.42192   1.000
    C470    C    0.33023   0.77434   0.59321   1.000
    C471    C    0.83023   0.77434   0.59321   1.000
    C472    C    0.35979   0.73126   0.74497   1.000
    C473    C    0.85979   0.73126   0.74497   1.000
    C474    C    0.06387   0.69757   0.90377   1.000
    C475    C    0.56388   0.69757   0.90377   1.000
    C476    C    0.21859   0.71907   0.92191   1.000
    C477    C    0.71859   0.71907   0.92190   1.000
    C478    C    0.41969   0.72579   0.09321   1.000
    C479    C    0.91969   0.72579   0.09321   1.000
    C480    C    0.45995   0.17644   0.80813   1.000
    C481    C    0.95995   0.17644   0.80813   1.000
    C482    C    0.39317   0.23325   0.88099   1.000
    C483    C    0.89318   0.23325   0.88099   1.000
    C484    C    0.36531   0.92655   0.70308   1.000
    C485    C    0.86532   0.92655   0.70308   1.000
    C486    C    0.25566   0.86266   0.73326   1.000
    C487    C    0.75566   0.86266   0.73326   1.000
    C488    C    0.16309   0.04309   0.90258   1.000
    C489    C    0.66309   0.04309   0.90258   1.000
    C490    C    0.29006   0.32354   0.30814   1.000
    C491    C    0.79007   0.32355   0.30814   1.000
    C492    C    0.35686   0.26675   0.38101   1.000
    C493    C    0.85686   0.26675   0.38101   1.000
    C494    C    0.38463   0.57347   0.20305   1.000
    C495    C    0.88463   0.57347   0.20300   1.000
    C496    C    0.49429   0.63736   0.23326   1.000
    C497    C    0.99429   0.63736   0.23326   1.000
    C498    C    0.08691   0.45696   0.40257   1.000
    C499    C    0.58692   0.45696   0.40250   1.000
    C500    C    0.04005   0.82357   0.19185   1.000
    C501    C    0.54005   0.82357   0.19185   1.000
    C502    C    0.10683   0.76676   0.11899   1.000
    C503    C    0.60683   0.76676   0.11899   1.000
    C504    C    0.13469   0.07346   0.29690   1.000
    C505    C    0.63469   0.07346   0.29690   1.000
    C506    C    0.24435   0.13735   0.26672   1.000
    C507    C    0.74435   0.13735   0.26672   1.000
    C508    C    0.33691   0.95692   0.09740   1.000
    C509    C    0.83692   0.95692   0.09740   1.000
    C510    C    0.20994   0.67647   0.69184   1.000
    C511    C    0.70994   0.67647   0.69184   1.000
    C512    C    0.14314   0.73326   0.61896   1.000
    C513    C    0.64314   0.73326   0.61890   1.000
    C514    C    0.11538   0.42654   0.79692   1.000
    C515    C    0.61538   0.42655   0.79692   1.000
    C516    C    0.00572   0.36265   0.76672   1.000
    C517    C    0.50572   0.36265   0.76672   1.000
    C518    C    0.41308   0.54306   0.59740   1.000
    C519    C    0.91309   0.54306   0.59740   1.000
    O520    O    0.41606   0.79719   0.02765   1.000
    O521    O    0.40311   0.83129   0.98657   1.000
    O522    O    0.36558   0.77726   0.99131   1.000
    O523    O    0.91605   0.79719   0.02765   1.000
    O524    O    0.90311   0.83129   0.98657   1.000
    O525    O    0.86558   0.77727   0.99131   1.000
    O526    O    0.57848   0.70304   0.98798   1.000
    O527    O    0.07848   0.70304   0.98801   1.000
    O528    O    0.29715   0.66044   0.01413   1.000
    O529    O    0.79715   0.66044   0.01413   1.000
    O530    O    0.68728   0.24191   0.04669   1.000
    O531    O    0.67224   0.28370   0.99834   1.000
    O532    O    0.63443   0.22274   0.00837   1.000
    O533    O    0.18728   0.24191   0.04669   1.000
    O534    O    0.17224   0.28370   0.99834   1.000
    O535    O    0.13443   0.22275   0.00837   1.000
    O536    O    0.40062   0.33767   0.02440   1.000
    O537    O    0.90062   0.33767   0.02443   1.000
    O538    O    0.09142   0.96902   0.02678   1.000
    O539    O    0.04029   0.98419   0.04286   1.000
    O540    O    0.05864   0.98244   0.98549   1.000
    O541    O    0.59143   0.96902   0.02678   1.000
    O542    O    0.54030   0.98419   0.04286   1.000
    O543    O    0.55865   0.98243   0.98550   1.000
    O544    O    0.34135   0.67730   0.04802   1.000
    O545    O    0.32777   0.71631   0.00162   1.000
    O546    O    0.84135   0.67730   0.04802   1.000
    O547    O    0.82777   0.71631   0.00162   1.000
    O548    O    0.68130   0.74160   0.99661   1.000
    O549    O    0.18130   0.74160   0.99657   1.000
    O550    O    0.59690   0.16872   0.01311   1.000
    O551    O    0.09689   0.16872   0.01311   1.000
    O552    O    0.36704   0.28173   0.02941   1.000
    O553    O    0.33372   0.22529   0.03190   1.000
    O554    O    0.30578   0.26862   0.05308   1.000
    O555    O    0.31871   0.25840   0.00336   1.000
    O556    O    0.86704   0.28173   0.02941   1.000
    O557    O    0.83372   0.22529   0.03190   1.000
    O558    O    0.80579   0.26862   0.05308   1.000
    O559    O    0.81871   0.25840   0.00336   1.000
    O560    O    0.92003   0.30481   0.06345   1.000
    O561    O    0.92153   0.29697   0.01196   1.000
    O562    O    0.42002   0.30480   0.06345   1.000
    O563    O    0.42152   0.29696   0.01196   1.000
    O564    O    0.48166   0.00176   0.05735   1.000
    O565    O    0.42047   0.01873   0.07349   1.000
    O566    O    0.44135   0.01758   0.01447   1.000
    O567    O    0.98166   0.00176   0.05735   1.000
    O568    O    0.92048   0.01873   0.07349   1.000
    O569    O    0.94136   0.01758   0.01443   1.000
    O570    O    0.02318   0.34234   0.07778   1.000
    O571    O    0.52319   0.34234   0.07778   1.000
    O572    O    0.45965   0.81080   0.06311   1.000
    O573    O    0.42802   0.75795   0.07426   1.000
    O574    O    0.95965   0.81080   0.06311   1.000
    O575    O    0.92802   0.75795   0.07426   1.000
    O576    O    0.52074   0.98657   0.09265   1.000
    O577    O    0.02073   0.98657   0.09265   1.000
    O578    O    0.39112   0.69902   0.08431   1.000
    O579    O    0.35716   0.64689   0.09157   1.000
    O580    O    0.89112   0.69902   0.08431   1.000
    O581    O    0.85716   0.64689   0.09157   1.000
    O582    O    0.21128   0.20222   0.07702   1.000
    O583    O    0.24568   0.25751   0.07705   1.000
    O584    O    0.19518   0.24041   0.09844   1.000
    O585    O    0.71128   0.20222   0.07702   1.000
    O586    O    0.74568   0.25751   0.07705   1.000
    O587    O    0.69518   0.24041   0.09844   1.000
    O588    O    0.29761   0.27926   0.11090   1.000
    O589    O    0.79761   0.27925   0.11088   1.000
    O590    O    0.88024   0.05091   0.09335   1.000
    O591    O    0.38023   0.05091   0.09335   1.000
    O592    O    0.44411   0.72621   0.13841   1.000
    O593    O    0.94411   0.72621   0.13841   1.000
    O594    O    0.22529   0.87072   0.11251   1.000
    O595    O    0.72529   0.87072   0.11251   1.000
    O596    O    0.97232   0.32467   0.09847   1.000
    O597    O    0.91204   0.31491   0.12136   1.000
    O598    O    0.47232   0.32467   0.09847   1.000
    O599    O    0.41204   0.31491   0.12136   1.000
    O600    O    0.86469   0.99075   0.09815   1.000
    O601    O    0.80682   0.95763   0.11689   1.000
    O602    O    0.36468   0.99075   0.09815   1.000
    O603    O    0.30681   0.95763   0.11689   1.000
    O604    O    0.90467   0.02792   0.12372   1.000
    O605    O    0.40466   0.02792   0.12372   1.000
    O606    O    0.00823   0.37886   0.10259   1.000
    O607    O    0.03028   0.33394   0.12895   1.000
    O608    O    0.50824   0.37886   0.10259   1.000
    O609    O    0.53029   0.33394   0.12895   1.000
    O610    O    0.60283   0.79384   0.13814   1.000
    O611    O    0.10283   0.79384   0.13814   1.000
    O612    O    0.74924   0.92622   0.13297   1.000
    O613    O    0.68978   0.89204   0.14783   1.000
    O614    O    0.24924   0.92622   0.13297   1.000
    O615    O    0.18977   0.89204   0.14783   1.000
    O616    O    0.77238   0.98833   0.15844   1.000
    O617    O    0.27238   0.98833   0.15844   1.000
    O618    O    0.88508   0.35858   0.14316   1.000
    O619    O    0.38508   0.35858   0.14317   1.000
    O620    O    0.85088   0.30248   0.14511   1.000
    O621    O    0.81633   0.24712   0.15070   1.000
    O622    O    0.79614   0.28842   0.16185   1.000
    O623    O    0.35088   0.30248   0.14513   1.000
    O624    O    0.31633   0.24712   0.15073   1.000
    O625    O    0.29614   0.28843   0.16206   1.000
    O626    O    0.39979   0.32452   0.17104   1.000
    O627    O    0.89980   0.32452   0.17105   1.000
    O628    O    0.54560   0.28260   0.16886   1.000
    O629    O    0.58050   0.34627   0.17164   1.000
    O630    O    0.04559   0.28260   0.16886   1.000
    O631    O    0.08049   0.34627   0.17164   1.000
    O632    O    0.62831   0.85544   0.16171   1.000
    O633    O    0.56944   0.82224   0.17457   1.000
    O634    O    0.12831   0.85544   0.16171   1.000
    O635    O    0.06944   0.82224   0.17457   1.000
    O636    O    0.01673   0.22404   0.17023   1.000
    O637    O    0.51673   0.22404   0.17023   1.000
    O638    O    0.65342   0.92007   0.18813   1.000
    O639    O    0.15342   0.92007   0.18811   1.000
    O640    O    0.61476   0.40203   0.17857   1.000
    O641    O    0.11476   0.40203   0.17857   1.000
    O642    O    0.78872   0.04364   0.18394   1.000
    O643    O    0.73596   0.01610   0.19903   1.000
    O644    O    0.28872   0.04364   0.18394   1.000
    O645    O    0.23596   0.01610   0.19903   1.000
    O646    O    0.56138   0.23228   0.20475   1.000
    O647    O    0.06138   0.23228   0.20475   1.000
    O648    O    0.50429   0.77510   0.18773   1.000
    O649    O    0.48141   0.68200   0.20844   1.000
    O650    O    0.42933   0.74772   0.21428   1.000
    O651    O    0.00429   0.77510   0.18773   1.000
    O652    O    0.98141   0.68200   0.20844   1.000
    O653    O    0.92933   0.74772   0.21426   1.000
    O654    O    0.63028   0.35758   0.21010   1.000
    O655    O    0.13027   0.35758   0.21006   1.000
    O656    O    0.91344   0.57589   0.21927   1.000
    O657    O    0.41344   0.57589   0.21930   1.000
    O658    O    0.17647   0.98203   0.21383   1.000
    O659    O    0.12444   0.94887   0.22464   1.000
    O660    O    0.67647   0.98203   0.21385   1.000
    O661    O    0.62444   0.94887   0.22466   1.000
    O662    O    0.19810   0.04608   0.24099   1.000
    O663    O    0.69810   0.04609   0.24099   1.000
    O664    O    0.57989   0.19054   0.23832   1.000
    O665    O    0.61193   0.24455   0.24198   1.000
    O666    O    0.07989   0.19054   0.23831   1.000
    O667    O    0.11193   0.24455   0.24198   1.000
    O668    O    0.46827   0.60783   0.23440   1.000
    O669    O    0.96827   0.60783   0.23440   1.000
    O670    O    0.14592   0.30618   0.24450   1.000
    O671    O    0.17461   0.36209   0.24523   1.000
    O672    O    0.64592   0.30618   0.24454   1.000
    O673    O    0.67462   0.36209   0.24527   1.000
    O674    O    0.94804   0.54610   0.25898   1.000
    O675    O    0.44803   0.54610   0.25898   1.000
    O676    O    0.92450   0.86216   0.25462   1.000
    O677    O    0.42450   0.86216   0.25462   1.000
    O678    O    0.89582   0.80624   0.25535   1.000
    O679    O    0.86184   0.74461   0.25794   1.000
    O680    O    0.39582   0.80624   0.25537   1.000
    O681    O    0.36184   0.74461   0.25796   1.000
    O682    O    0.82981   0.69059   0.26165   1.000
    O683    O    0.32981   0.69059   0.26165   1.000
    O684    O    0.17938   0.24768   0.28568   1.000
    O685    O    0.67939   0.24768   0.28568   1.000
    O686    O    0.87440   0.44884   0.27530   1.000
    O687    O    0.37440   0.44884   0.27530   1.000
    O688    O    0.21833   0.10782   0.26557   1.000
    O689    O    0.16350   0.07588   0.28066   1.000
    O690    O    0.71833   0.10782   0.26557   1.000
    O691    O    0.66351   0.07588   0.28066   1.000
    O692    O    0.38014   0.85767   0.28976   1.000
    O693    O    0.88014   0.85767   0.28976   1.000
    O694    O    0.23145   0.18197   0.29154   1.000
    O695    O    0.73146   0.18198   0.29154   1.000
    O696    O    0.31128   0.73237   0.29514   1.000
    O697    O    0.81128   0.73236   0.29516   1.000
    O698    O    0.92643   0.48202   0.28612   1.000
    O699    O    0.98591   0.51612   0.30095   1.000
    O700    O    0.42643   0.48202   0.28612   1.000
    O701    O    0.48591   0.51612   0.30095   1.000
    O702    O    0.90341   0.42005   0.31184   1.000
    O703    O    0.40341   0.42005   0.31184   1.000
    O704    O    0.14959   0.82456   0.32880   1.000
    O705    O    0.64959   0.82456   0.32884   1.000
    O706    O    0.75431   0.27508   0.31225   1.000
    O707    O    0.81946   0.32223   0.32542   1.000
    O708    O    0.25431   0.27507   0.31225   1.000
    O709    O    0.31945   0.32222   0.32542   1.000
    O710    O    0.03865   0.54367   0.31603   1.000
    O711    O    0.53866   0.54368   0.31604   1.000
    O712    O    0.86460   0.90214   0.32125   1.000
    O713    O    0.83035   0.84638   0.32820   1.000
    O714    O    0.36460   0.90214   0.32125   1.000
    O715    O    0.33036   0.84638   0.32820   1.000
    O716    O    0.69417   0.22614   0.36156   1.000
    O717    O    0.19417   0.22614   0.36156   1.000
    O718    O    0.26661   0.72414   0.32964   1.000
    O719    O    0.29547   0.78271   0.33099   1.000
    O720    O    0.76661   0.72414   0.32966   1.000
    O721    O    0.79547   0.78271   0.33101   1.000
    O722    O    0.52235   0.48835   0.34153   1.000
    O723    O    0.02234   0.48835   0.34153   1.000
    O724    O    0.54595   0.78850   0.33790   1.000
    O725    O    0.04594   0.78850   0.33788   1.000
    O726    O    0.87832   0.35543   0.33828   1.000
    O727    O    0.93979   0.39203   0.35214   1.000
    O728    O    0.37831   0.35543   0.33828   1.000
    O729    O    0.43978   0.39203   0.35214   1.000
    O730    O    0.06614   0.74721   0.34926   1.000
    O731    O    0.56614   0.74721   0.34927   1.000
    O732    O    0.78015   0.83409   0.37084   1.000
    O733    O    0.28015   0.83409   0.37084   1.000
    O734    O    0.85286   0.29383   0.36185   1.000
    O735    O    0.35285   0.29383   0.36185   1.000
    O736    O    0.15462   0.52804   0.37629   1.000
    O737    O    0.65462   0.52805   0.37629   1.000
    O738    O    0.10071   0.80256   0.35475   1.000
    O739    O    0.13491   0.85867   0.35665   1.000
    O740    O    0.16189   0.81502   0.37849   1.000
    O741    O    0.60071   0.80256   0.35480   1.000
    O742    O    0.63491   0.85867   0.35668   1.000
    O743    O    0.66189   0.81502   0.37853   1.000
    O744    O    0.04746   0.77940   0.38906   1.000
    O745    O    0.54747   0.77940   0.38907   1.000
    O746    O    0.99924   0.42623   0.36700   1.000
    O747    O    0.05680   0.45766   0.38308   1.000
    O748    O    0.49924   0.42623   0.36700   1.000
    O749    O    0.55681   0.45766   0.38304   1.000
    O750    O    0.97532   0.37072   0.38746   1.000
    O751    O    0.47531   0.37072   0.38746   1.000
    O752    O    0.44506   0.74051   0.40158   1.000
    O753    O    0.94507   0.74052   0.40158   1.000
    O754    O    0.77069   0.48659   0.40732   1.000
    O755    O    0.27069   0.48659   0.40732   1.000
    O756    O    0.60733   0.14670   0.40845   1.000
    O757    O    0.10733   0.14670   0.40845   1.000
    O758    O    0.25809   0.87902   0.39716   1.000
    O759    O    0.75809   0.87902   0.39716   1.000
    O760    O    0.22219   0.82483   0.40134   1.000
    O761    O    0.27308   0.84256   0.42200   1.000
    O762    O    0.72219   0.82483   0.40134   1.000
    O763    O    0.77308   0.84256   0.42200   1.000
    O764    O    0.61467   0.49081   0.40180   1.000
    O765    O    0.63018   0.55098   0.40668   1.000
    O766    O    0.67045   0.51881   0.42651   1.000
    O767    O    0.11466   0.49080   0.40183   1.000
    O768    O    0.13018   0.55098   0.40668   1.000
    O769    O    0.17045   0.51880   0.42650   1.000
    O770    O    0.16993   0.80501   0.43644   1.000
    O771    O    0.66993   0.80500   0.43644   1.000
    O772    O    0.14124   0.19887   0.41568   1.000
    O773    O    0.17809   0.25785   0.42570   1.000
    O774    O    0.64124   0.19887   0.41568   1.000
    O775    O    0.67809   0.25785   0.42570   1.000
    O776    O    0.20967   0.31074   0.43231   1.000
    O777    O    0.49557   0.75767   0.42295   1.000
    O778    O    0.55569   0.76884   0.44690   1.000
    O779    O    0.99557   0.75767   0.42295   1.000
    O780    O    0.05569   0.76884   0.44690   1.000
    O781    O    0.96122   0.70237   0.42299   1.000
    O782    O    0.46121   0.70236   0.42302   1.000
    O783    O    0.93719   0.74205   0.45332   1.000
    O784    O    0.43718   0.74205   0.45332   1.000
    O785    O    0.09150   0.17712   0.45198   1.000
    O786    O    0.59150   0.17712   0.45198   1.000
    O787    O    0.70966   0.31074   0.43681   1.000
    O788    O    0.23163   0.50180   0.44262   1.000
    O789    O    0.29027   0.48418   0.45710   1.000
    O790    O    0.73163   0.50180   0.44263   1.000
    O791    O    0.79027   0.48418   0.45710   1.000
    O792    O    0.66609   0.29711   0.47198   1.000
    O793    O    0.16609   0.29711   0.47198   1.000
    O794    O    0.19136   0.51763   0.48550   1.000
    O795    O    0.69136   0.51763   0.48552   1.000
    O796    O    0.58364   0.72556   0.46809   1.000
    O797    O    0.08364   0.72556   0.46809   1.000
    O798    O    0.34140   0.46897   0.47313   1.000
    O799    O    0.84140   0.46898   0.47317   1.000
    O800    O    0.11697   0.78199   0.47054   1.000
    O801    O    0.15057   0.83793   0.47543   1.000
    O802    O    0.17148   0.79724   0.48793   1.000
    O803    O    0.61697   0.78199   0.47054   1.000
    O804    O    0.65057   0.83793   0.47539   1.000
    O805    O    0.67148   0.79724   0.48793   1.000
    O806    O    0.56867   0.75871   0.49662   1.000
    O807    O    0.06867   0.75871   0.49662   1.000
    O808    O    0.84689   0.66879   0.48690   1.000
    O809    O    0.34689   0.66879   0.48692   1.000
    O810    O    0.43134   0.24130   0.50334   1.000
    O811    O    0.93134   0.24130   0.50335   1.000
    O812    O    0.04733   0.16024   0.48589   1.000
    O813    O    0.07789   0.21615   0.49835   1.000
    O814    O    0.54734   0.16024   0.48589   1.000
    O815    O    0.57790   0.21615   0.49835   1.000
    O816    O    0.30864   0.48239   0.51446   1.000
    O817    O    0.80864   0.48239   0.51446   1.000
    O818    O    0.88437   0.72286   0.49163   1.000
    O819    O    0.92211   0.78387   0.50163   1.000
    O820    O    0.38436   0.72286   0.49163   1.000
    O821    O    0.42211   0.78387   0.50163   1.000
    O822    O    0.82853   0.20277   0.51189   1.000
    O823    O    0.32853   0.20276   0.51204   1.000
    O824    O    0.11564   0.27716   0.50832   1.000
    O825    O    0.15312   0.33123   0.51303   1.000
    O826    O    0.61564   0.27716   0.50832   1.000
    O827    O    0.65312   0.33123   0.51301   1.000
    O828    O    0.33391   0.70291   0.52797   1.000
    O829    O    0.83391   0.70291   0.52797   1.000
    O830    O    0.45267   0.83978   0.51409   1.000
    O831    O    0.95267   0.83978   0.51409   1.000
    O832    O    0.56282   0.25797   0.54666   1.000
    O833    O    0.06282   0.25797   0.54666   1.000
    O834    O    0.34943   0.16208   0.52454   1.000
    O835    O    0.84944   0.16208   0.52454   1.000
    O836    O    0.65861   0.53104   0.52680   1.000
    O837    O    0.70973   0.51584   0.54287   1.000
    O838    O    0.15861   0.53104   0.52680   1.000
    O839    O    0.20973   0.51584   0.54287   1.000
    O840    O    0.40850   0.82290   0.54799   1.000
    O841    O    0.90850   0.82290   0.54795   1.000
    O842    O    0.38303   0.21802   0.52944   1.000
    O843    O    0.41636   0.27446   0.53188   1.000
    O844    O    0.44431   0.23117   0.55307   1.000
    O845    O    0.88304   0.21802   0.52944   1.000
    O846    O    0.91637   0.27446   0.53188   1.000
    O847    O    0.94432   0.23118   0.55307   1.000
    O848    O    0.33007   0.19500   0.56354   1.000
    O849    O    0.83008   0.19501   0.56354   1.000
    O850    O    0.26837   0.49821   0.55734   1.000
    O851    O    0.32955   0.48121   0.57346   1.000
    O852    O    0.76837   0.49822   0.55734   1.000
    O853    O    0.82955   0.48121   0.57346   1.000
    O854    O    0.72693   0.15745   0.57793   1.000
    O855    O    0.22693   0.15745   0.57793   1.000
    O856    O    0.29034   0.68928   0.56316   1.000
    O857    O    0.32192   0.74216   0.57428   1.000
    O858    O    0.79034   0.68928   0.56316   1.000
    O859    O    0.82192   0.74216   0.57428   1.000
    O860    O    0.22931   0.51342   0.59262   1.000
    O861    O    0.72931   0.51343   0.59266   1.000
    O862    O    0.85877   0.80114   0.58425   1.000
    O863    O    0.89267   0.85331   0.59148   1.000
    O864    O    0.35877   0.80114   0.58430   1.000
    O865    O    0.39267   0.85331   0.59152   1.000
    O866    O    0.53879   0.29766   0.57695   1.000
    O867    O    0.50443   0.24235   0.57702   1.000
    O868    O    0.55494   0.25951   0.59840   1.000
    O869    O    0.03879   0.29766   0.57695   1.000
    O870    O    0.00443   0.24235   0.57702   1.000
    O871    O    0.05493   0.25951   0.59840   1.000
    O872    O    0.95254   0.22062   0.61090   1.000
    O873    O    0.45254   0.22062   0.61090   1.000
    O874    O    0.36982   0.44904   0.59329   1.000
    O875    O    0.86982   0.44904   0.59330   1.000
    O876    O    0.30584   0.77388   0.63841   1.000
    O877    O    0.80584   0.77388   0.63841   1.000
    O878    O    0.02469   0.62929   0.61251   1.000
    O879    O    0.52469   0.62929   0.61251   1.000
    O880    O    0.27781   0.17518   0.59859   1.000
    O881    O    0.33811   0.18499   0.62144   1.000
    O882    O    0.77781   0.17519   0.59859   1.000
    O883    O    0.83811   0.18500   0.62144   1.000
    O884    O    0.88534   0.50921   0.59814   1.000
    O885    O    0.94320   0.54236   0.61689   1.000
    O886    O    0.38533   0.50921   0.59813   1.000
    O887    O    0.44319   0.54236   0.61689   1.000
    O888    O    0.34538   0.47197   0.62367   1.000
    O889    O    0.84538   0.47197   0.62368   1.000
    O890    O    0.74192   0.12099   0.60277   1.000
    O891    O    0.71985   0.16593   0.62909   1.000
    O892    O    0.24192   0.12098   0.60277   1.000
    O893    O    0.21985   0.16592   0.62909   1.000
    O894    O    0.64715   0.70619   0.63805   1.000
    O895    O    0.14715   0.70618   0.63808   1.000
    O896    O    0.00076   0.57378   0.63297   1.000
    O897    O    0.06022   0.60798   0.64783   1.000
    O898    O    0.50076   0.57378   0.63297   1.000
    O899    O    0.56022   0.60798   0.64783   1.000
    O900    O    0.47765   0.51166   0.65844   1.000
    O901    O    0.97766   0.51166   0.65844   1.000
    O902    O    0.36510   0.14135   0.64329   1.000
    O903    O    0.86510   0.14135   0.64329   1.000
    O904    O    0.39930   0.19745   0.64518   1.000
    O905    O    0.43386   0.25281   0.65070   1.000
    O906    O    0.45406   0.21152   0.66207   1.000
    O907    O    0.89930   0.19746   0.64518   1.000
    O908    O    0.93386   0.25282   0.65070   1.000
    O909    O    0.95406   0.21153   0.66207   1.000
    O910    O    0.85042   0.17546   0.67110   1.000
    O911    O    0.35042   0.17546   0.67114   1.000
    O912    O    0.12169   0.64458   0.66166   1.000
    O913    O    0.18055   0.67779   0.67452   1.000
    O914    O    0.62169   0.64458   0.66166   1.000
    O915    O    0.68055   0.67779   0.67452   1.000
    O916    O    0.20454   0.21730   0.66896   1.000
    O917    O    0.16965   0.15363   0.67174   1.000
    O918    O    0.70454   0.21730   0.66896   1.000
    O919    O    0.66965   0.15363   0.67174   1.000
    O920    O    0.23339   0.27586   0.67031   1.000
    O921    O    0.73339   0.27587   0.67031   1.000
    O922    O    0.59660   0.57996   0.68814   1.000
    O923    O    0.09659   0.57996   0.68814   1.000
    O924    O    0.13539   0.09787   0.67868   1.000
    O925    O    0.63540   0.09787   0.67868   1.000
    O926    O    0.96135   0.45634   0.68394   1.000
    O927    O    0.01409   0.48389   0.69903   1.000
    O928    O    0.46134   0.45634   0.68394   1.000
    O929    O    0.51409   0.48389   0.69903   1.000
    O930    O    0.18872   0.26764   0.70481   1.000
    O931    O    0.68872   0.26765   0.70481   1.000
    O932    O    0.24570   0.72494   0.68773   1.000
    O933    O    0.26856   0.81804   0.70844   1.000
    O934    O    0.32062   0.75234   0.71429   1.000
    O935    O    0.74570   0.72494   0.68773   1.000
    O936    O    0.76856   0.81804   0.70844   1.000
    O937    O    0.82062   0.75234   0.71429   1.000
    O938    O    0.11985   0.14234   0.71018   1.000
    O939    O    0.61986   0.14235   0.71018   1.000
    O940    O    0.33650   0.92414   0.71931   1.000
    O941    O    0.83650   0.92414   0.71931   1.000
    O942    O    0.57358   0.51799   0.71386   1.000
    O943    O    0.62561   0.55118   0.72467   1.000
    O944    O    0.07357   0.51799   0.71386   1.000
    O945    O    0.12560   0.55117   0.72467   1.000
    O946    O    0.55197   0.45391   0.74099   1.000
    O947    O    0.05196   0.45391   0.74099   1.000
    O948    O    0.67020   0.30942   0.73832   1.000
    O949    O    0.63816   0.25541   0.74199   1.000
    O950    O    0.17020   0.30941   0.73832   1.000
    O951    O    0.13816   0.25540   0.74199   1.000
    O952    O    0.78167   0.89219   0.73440   1.000
    O953    O    0.28167   0.89219   0.73440   1.000
    O954    O    0.60418   0.19378   0.74458   1.000
    O955    O    0.57550   0.13785   0.74534   1.000
    O956    O    0.10418   0.19377   0.74458   1.000
    O957    O    0.07550   0.13785   0.74534   1.000
    O958    O    0.80191   0.95393   0.75898   1.000
    O959    O    0.30191   0.95393   0.75898   1.000
    O960    O    0.32539   0.63792   0.75470   1.000
    O961    O    0.82539   0.63792   0.75470   1.000
    O962    O    0.35409   0.69383   0.75543   1.000
    O963    O    0.38808   0.75546   0.75799   1.000
    O964    O    0.85409   0.69383   0.75543   1.000
    O965    O    0.88808   0.75546   0.75799   1.000
    O966    O    0.42011   0.80947   0.76165   1.000
    O967    O    0.92011   0.80947   0.76166   1.000
    O968    O    0.57068   0.25230   0.78565   1.000
    O969    O    0.07067   0.25230   0.78565   1.000
    O970    O    0.37556   0.05114   0.77491   1.000
    O971    O    0.87556   0.05114   0.77530   1.000
    O972    O    0.03174   0.39218   0.76557   1.000
    O973    O    0.08656   0.42413   0.78067   1.000
    O974    O    0.53174   0.39218   0.76557   1.000
    O975    O    0.58657   0.42413   0.78067   1.000
    O976    O    0.86973   0.64243   0.78987   1.000
    O977    O    0.36973   0.64243   0.78987   1.000
    O978    O    0.51860   0.31802   0.79151   1.000
    O979    O    0.01860   0.31801   0.79151   1.000
    O980    O    0.43862   0.76772   0.79521   1.000
    O981    O    0.93862   0.76773   0.79522   1.000
    O982    O    0.32353   0.01799   0.78612   1.000
    O983    O    0.26404   0.98391   0.80095   1.000
    O984    O    0.82353   0.01799   0.78612   1.000
    O985    O    0.76404   0.98391   0.80095   1.000
    O986    O    0.84658   0.07994   0.81184   1.000
    O987    O    0.34658   0.07994   0.81184   1.000
    O988    O    0.10021   0.67549   0.82892   1.000
    O989    O    0.60021   0.67549   0.82892   1.000
    O990    O    0.49572   0.22491   0.81221   1.000
    O991    O    0.43056   0.17777   0.82540   1.000
    O992    O    0.99572   0.22491   0.81221   1.000
    O993    O    0.93056   0.17777   0.82540   1.000
    O994    O    0.71129   0.95638   0.81603   1.000
    O995    O    0.21129   0.95638   0.81603   1.000
    O996    O    0.38525   0.59798   0.82140   1.000
    O997    O    0.41951   0.65374   0.82833   1.000
    O998    O    0.88525   0.59798   0.82141   1.000
    O999    O    0.91951   0.65374   0.82833   1.000
    O1000   O    0.55590   0.27380   0.86153   1.000
    O1001   O    0.05590   0.27380   0.86153   1.000
    O1002   O    0.48327   0.77596   0.82974   1.000
    O1003   O    0.45441   0.71741   0.83112   1.000
    O1004   O    0.98044   0.77597   0.82974   1.000
    O1005   O    0.95441   0.71741   0.83112   1.000
    O1006   O    0.72762   0.01168   0.84153   1.000
    O1007   O    0.22762   0.01168   0.84153   1.000
    O1008   O    0.70386   0.71158   0.83790   1.000
    O1009   O    0.20386   0.71158   0.83790   1.000
    O1010   O    0.87170   0.14457   0.83827   1.000
    O1011   O    0.81023   0.10798   0.85214   1.000
    O1012   O    0.37170   0.14457   0.83827   1.000
    O1013   O    0.31023   0.10798   0.85214   1.000
    O1014   O    0.18367   0.75288   0.84925   1.000
    O1015   O    0.68367   0.75288   0.84925   1.000
    O1016   O    0.89718   0.20618   0.86183   1.000
    O1017   O    0.39717   0.20618   0.86183   1.000
    O1018   O    0.46972   0.66606   0.87102   1.000
    O1019   O    0.96972   0.66606   0.87102   1.000
    O1020   O    0.09534   0.97209   0.87625   1.000
    O1021   O    0.59534   0.97209   0.87625   1.000
    O1022   O    0.64912   0.69753   0.85484   1.000
    O1023   O    0.61493   0.64142   0.85680   1.000
    O1024   O    0.58796   0.68510   0.87861   1.000
    O1025   O    0.14912   0.69753   0.85484   1.000
    O1026   O    0.11493   0.64142   0.85680   1.000
    O1027   O    0.08796   0.68510   0.87861   1.000
    O1028   O    0.20239   0.72075   0.88907   1.000
    O1029   O    0.70239   0.72075   0.88906   1.000
    O1030   O    0.25076   0.07379   0.86700   1.000
    O1031   O    0.19319   0.04238   0.88308   1.000
    O1032   O    0.75076   0.07379   0.86700   1.000
    O1033   O    0.69319   0.04238   0.88308   1.000
    O1034   O    0.27471   0.12929   0.88746   1.000
    O1035   O    0.77471   0.12929   0.88746   1.000
    O1036   O    0.80482   0.75960   0.90152   1.000
    O1037   O    0.30483   0.75960   0.90153   1.000
    O1038   O    0.97927   0.01344   0.90732   1.000
    O1039   O    0.47926   0.01344   0.90732   1.000
    O1040   O    0.64285   0.35312   0.90840   1.000
    O1041   O    0.14285   0.35312   0.90840   1.000
    O1042   O    0.49176   0.62114   0.89738   1.000
    O1043   O    0.99177   0.62115   0.89739   1.000
    O1044   O    0.02769   0.67534   0.90150   1.000
    O1045   O    0.97682   0.65767   0.92219   1.000
    O1046   O    0.52768   0.67534   0.90150   1.000
    O1047   O    0.47681   0.65766   0.92217   1.000
    O1048   O    0.13532   0.00927   0.90182   1.000
    O1049   O    0.11976   0.94910   0.90662   1.000
    O1050   O    0.07952   0.98128   0.92648   1.000
    O1051   O    0.63532   0.00926   0.90182   1.000
    O1052   O    0.61977   0.94910   0.90662   1.000
    O1053   O    0.57953   0.98128   0.92648   1.000
    O1054   O    0.07998   0.69520   0.93651   1.000
    O1055   O    0.57998   0.69520   0.93651   1.000
    O1056   O    0.10889   0.30099   0.91565   1.000
    O1057   O    0.07198   0.24206   0.92571   1.000
    O1058   O    0.60889   0.30099   0.91565   1.000
    O1059   O    0.57198   0.24206   0.92571   1.000
    O1060   O    0.75432   0.74250   0.92292   1.000
    O1061   O    0.69422   0.73139   0.94688   1.000
    O1062   O    0.28872   0.79779   0.92291   1.000
    O1063   O    0.25432   0.74250   0.92292   1.000
    O1064   O    0.19422   0.73139   0.94685   1.000
    O1065   O    0.78872   0.79779   0.92295   1.000
    O1066   O    0.31273   0.75810   0.95327   1.000
    O1067   O    0.81273   0.75810   0.95328   1.000
    O1068   O    0.15866   0.32271   0.95195   1.000
    O1069   O    0.65866   0.32271   0.95195   1.000
    O1070   O    0.54036   0.18922   0.93683   1.000
    O1071   O    0.04035   0.18922   0.93686   1.000
    O1072   O    0.01835   0.99825   0.94262   1.000
    O1073   O    0.95971   0.01582   0.95707   1.000
    O1074   O    0.51834   0.99825   0.94262   1.000
    O1075   O    0.45970   0.01582   0.95711   1.000
    O1076   O    0.08395   0.20282   0.97202   1.000
    O1077   O    0.58395   0.20282   0.97202   1.000
    O1078   O    0.16629   0.77471   0.96801   1.000
    O1079   O    0.66629   0.77471   0.96804   1.000
    O1080   O    0.40857   0.03099   0.97319   1.000
    O1081   O    0.90858   0.03099   0.97315   1.000
    O1082   O    0.13297   0.71827   0.97053   1.000
    O1083   O    0.09938   0.66234   0.97553   1.000
    O1084   O    0.63297   0.71827   0.97056   1.000
    O1085   O    0.59938   0.66234   0.97554   1.000
    O1086   O    0.70286   0.33956   0.98582   1.000
    O1087   O    0.20286   0.33956   0.98583   1.000
loop_
    _geom_bond_atom_site_label_1
    _geom_bond_atom_site_label_2
    _geom_bond_distance
    _geom_bond_site_symmetry_2
    _ccdc_geom_bond_type
    C446   O520      0.69778      .   S
    C444   O520      0.69778      .   S
    C446   O521      0.54173  1_554   S
    C222   O521      0.54173      .   S
    C446   O522      0.69858  1_554   S
    C438   O522      0.69858      .   S
    C447   O523      0.69779      .   S
    C445   O523      0.69779      .   S
    C447   O524      0.54173  1_554   S
    C223   O524      0.54173      .   S
    C447   O525      0.69857  1_554   S
    C439   O525      0.69857      .   S
    C199   O526      0.54853  1_554   S
    C429   O526      0.54853      .   S
    C198   O527      0.54894  1_554   S
    C428   O527      0.54894      .   S
    C216   O528      0.54476      .   S
    C440   O528      0.54476      .   S
    C217   O529      0.54476      .   S
    C441   O529      0.54476      .   S
    C327   O530      0.75413      .   S
    C325   O530      0.75413      .   S
    C327   O531      0.70037  1_554   S
    C329   O531      0.70037      .   S
    C327   O532      0.70009      .   S
    C335   O532      0.70009  1_556   S
    C326   O533      0.75413      .   S
    C324   O533      0.75413      .   S
    C326   O534      0.70036  1_554   S
    C328   O534      0.70036      .   S
    C326   O535      0.70010      .   S
    C334   O535      0.70010  1_556   S
    C88    O536      0.55639      .   S
    C316   O536      0.55639      .   S
    C89    O537      0.55625      .   S
    C317   O537      0.55625      .   S
    C246   O538      0.54570      .   S
    C20    O538      0.54570      .   S
    C246   O539      0.69789      .   S
    C356   O539      0.69789      .   S
    C246   O540      0.70131  1_554   S
    C242   O540      0.70131      .   S
    C247   O541      0.54570      .   S
    C21    O541      0.54570      .   S
    C247   O542      0.69789      .   S
    C357   O542      0.69789      .   S
    C247   O543      0.70121  1_554   S
    C243   O543      0.70121      .   S
    C440   O544      0.69510      .   S
    C442   O544      0.69510      .   S
    C440   O545      0.70037      .   S
    C438   O545      0.70037  1_556   S
    C441   O546      0.69511      .   S
    C443   O546      0.69511      .   S
    C441   O547      0.70036      .   S
    C439   O547      0.70036  1_556   S
    C203   O548      0.54866  1_554   S
    C431   O548      0.54866      .   S
    C202   O549      0.54931  1_554   S
    C430   O549      0.54931      .   S
    C115   O550      0.54471      .   S
    C335   O550      0.54471  1_556   S
    C114   O551      0.54471      .   S
    C334   O551      0.54471  1_556   S
    C318   O552      0.75994      .   S
    C316   O552      0.75994      .   S
    C318   O553      0.55685      .   S
    C92    O553      0.55685      .   S
    C318   O554      0.73366      .   S
    C460   O554      0.73366      .   S
    C318   O555      0.54874      .   S
    C94    O555      0.54874  1_556   S
    C319   O556      0.75995      .   S
    C317   O556      0.75995      .   S
    C319   O557      0.55685      .   S
    C93    O557      0.55685      .   S
    C319   O558      0.73365      .   S
    C461   O558      0.73365      .   S
    C319   O559      0.54875      .   S
    C95    O559      0.54875  1_556   S
    C317   O560      0.73258      .   S
    C459   O560      0.73258      .   S
    C317   O561      0.54887      .   S
    C91    O561      0.54887  1_556   S
    C316   O562      0.73258      .   S
    C458   O562      0.73258      .   S
    C316   O563      0.54890      .   S
    C90    O563      0.54890  1_556   S
    C354   O564      0.70094      .   S
    C357   O564      0.70094  1_565   S
    C354   O565      0.75187      .   S
    C352   O565      0.75187      .   S
    C354   O566      0.70131      .   S
    C358   O566      0.70131  1_556   S
    C355   O567      0.70079      .   S
    C356   O567      0.70079  1_465   S
    C355   O568      0.75189      .   S
    C353   O568      0.75189      .   S
    C355   O569      0.70209      .   S
    C359   O569      0.70209  1_556   S
    C84    O570      0.55182      .   S
    C314   O570      0.55182      .   S
    C85    O571      0.55182      .   S
    C315   O571      0.55182      .   S
    C444   O572      0.54379      .   S
    C220   O572      0.54379      .   S
    C444   O573      0.67598      .   S
    C478   O573      0.67598      .   S
    C445   O574      0.54379      .   S
    C221   O574      0.54379      .   S
    C445   O575      0.67598      .   S
    C479   O575      0.67598      .   S
    C357   O576      0.54579      .   S
    C127   O576      0.54579      .   S
    C356   O577      0.54579      .   S
    C126   O577      0.54579      .   S
    C442   O578      0.67659      .   S
    C478   O578      0.67659      .   S
    C442   O579      0.54548      .   S
    C218   O579      0.54548      .   S
    C443   O580      0.67659      .   S
    C479   O580      0.67659      .   S
    C443   O581      0.54547      .   S
    C219   O581      0.54547      .   S
    C324   O582      0.55715      .   S
    C104   O582      0.55715      .   S
    C324   O583      0.72696      .   S
    C460   O583      0.72696      .   S
    C324   O584      0.55092      .   S
    C106   O584      0.55092      .   S
    C325   O585      0.55715      .   S
    C105   O585      0.55715      .   S
    C325   O586      0.72698      .   S
    C461   O586      0.72698      .   S
    C325   O587      0.55091      .   S
    C107   O587      0.55091      .   S
    C460   O588      0.73377      .   S
    C320   O588      0.73377      .   S
    C461   O589      0.73340      .   S
    C321   O589      0.73340      .   S
    C125   O590      0.55188      .   S
    C353   O590      0.55188      .   S
    C124   O591      0.55189      .   S
    C352   O591      0.55189      .   S
    C478   O592      1.02326      .   S
    C4     O592      1.02326      .   S
    C479   O593      1.02329      .   S
    C5     O593      1.02329      .   S
    C120   O594      0.54432      .   S
    C350   O594      0.54432      .   S
    C121   O595      0.54433      .   S
    C351   O595      0.54433      .   S
    C459   O596      0.72680      .   S
    C314   O596      0.72680  1_455   S
    C459   O597      0.73384      .   S
    C323   O597      0.73384      .   S
    C458   O598      0.72692      .   S
    C315   O598      0.72692      .   S
    C458   O599      0.73377      .   S
    C322   O599      0.73377      .   S
    C509   O600      0.72207      .   S
    C353   O600      0.72207  1_545   S
    C509   O601      0.68842      .   S
    C349   O601      0.68842      .   S
    C508   O602      0.72206      .   S
    C352   O602      0.72206  1_545   S
    C508   O603      0.68841      .   S
    C348   O603      0.68841      .   S
    C353   O604      0.55177      .   S
    C123   O604      0.55177      .   S
    C352   O605      0.55178      .   S
    C122   O605      0.55178      .   S
    C314   O606      0.55632      .   S
    C86    O606      0.55632      .   S
    C314   O607      0.75522      .   S
    C308   O607      0.75522      .   S
    C315   O608      0.55632      .   S
    C87    O608      0.55632      .   S
    C315   O609      0.75520      .   S
    C309   O609      0.75520      .   S
    C503   O610      0.62257      .   S
    C337   O610      0.62257      .   S
    C502   O611      0.62259      .   S
    C336   O611      0.62259      .   S
    C351   O612      0.70137      .   S
    C349   O612      0.70137      .   S
    C351   O613      0.69905      .   S
    C339   O613      0.69905      .   S
    C350   O614      0.70138      .   S
    C348   O614      0.70138      .   S
    C350   O615      0.69906      .   S
    C338   O615      0.69906      .   S
    C349   O616      0.69985      .   S
    C347   O616      0.69985  1_545   S
    C348   O617      0.69985      .   S
    C346   O617      0.69985  1_545   S
    C103   O618      0.55593      .   S
    C323   O618      0.55593      .   S
    C102   O619      0.55589      .   S
    C322   O619      0.55589      .   S
    C321   O620      0.75883      .   S
    C323   O620      0.75883      .   S
    C321   O621      0.55558      .   S
    C99    O621      0.55558      .   S
    C321   O622      0.54621      .   S
    C97    O622      0.54621      .   S
    C320   O623      0.75880      .   S
    C322   O623      0.75880      .   S
    C320   O624      0.55552      .   S
    C98    O624      0.55552      .   S
    C320   O625      0.54860      .   S
    C96    O625      0.54860      .   S
    C322   O626      0.54951      .   S
    C100   O626      0.54951      .   S
    C323   O627      0.54950      .   S
    C101   O627      0.54950      .   S
    C309   O628      0.69992      .   S
    C311   O628      0.69992      .   S
    C309   O629      0.69989      .   S
    C307   O629      0.69989      .   S
    C308   O630      0.69992      .   S
    C310   O630      0.69992      .   S
    C308   O631      0.69990      .   S
    C306   O631      0.69990      .   S
    C337   O632      0.75493      .   S
    C339   O632      0.75493      .   S
    C337   O633      0.65402      .   S
    C501   O633      0.65402      .   S
    C336   O634      0.75493      .   S
    C338   O634      0.75493      .   S
    C336   O635      0.65402      .   S
    C500   O635      0.65402      .   S
    C80    O636      0.54477  1_655   S
    C310   O636      0.54477      .   S
    C81    O637      0.54477      .   S
    C311   O637      0.54477      .   S
    C339   O638      0.70093      .   S
    C341   O638      0.70093      .   S
    C338   O639      0.70060      .   S
    C340   O639      0.70060      .   S
    C79    O640      0.54533      .   S
    C307   O640      0.54533      .   S
    C78    O641      0.54534      .   S
    C306   O641      0.54534      .   S
    C347   O642      0.54359      .   S
    C119   O642      0.54359      .   S
    C347   O643      0.70296      .   S
    C343   O643      0.70296      .   S
    C346   O644      0.54359      .   S
    C118   O644      0.54359      .   S
    C346   O645      0.70296      .   S
    C342   O645      0.70296      .   S
    C311   O646      0.69420      .   S
    C313   O646      0.69420      .   S
    C310   O647      0.69421      .   S
    C312   O647      0.69421      .   S
    C4     O648      0.99501      .   S
    C501   O648      0.99501      .   S
    C4     O649      0.98302      .   S
    C496   O649      0.98302      .   S
    C4     O650      1.06564      .   S
    C464   O650      1.06564      .   S
    C5     O651      0.99494  1_655   S
    C500   O651      0.99494      .   S
    C5     O652      0.98302      .   S
    C497   O652      0.98302      .   S
    C5     O653      1.06542      .   S
    C465   O653      1.06542      .   S
    C307   O654      0.69485      .   S
    C305   O654      0.69485      .   S
    C306   O655      0.69422      .   S
    C304   O655      0.69422      .   S
    C495   O656      0.62671      .   S
    C289   O656      0.62671      .   S
    C494   O657      0.62642      .   S
    C288   O657      0.62642      .   S
    C340   O658      0.69813      .   S
    C342   O658      0.69813  1_545   S
    C340   O659      0.54358      .   S
    C116   O659      0.54358      .   S
    C341   O660      0.69807      .   S
    C343   O660      0.69807  1_545   S
    C341   O661      0.54331      .   S
    C117   O661      0.54331      .   S
    C342   O662      0.75339      .   S
    C344   O662      0.75339      .   S
    C343   O663      0.75339      .   S
    C345   O663      0.75339      .   S
    C313   O664      0.54541      .   S
    C83    O664      0.54541      .   S
    C313   O665      0.67654      .   S
    C457   O665      0.67654      .   S
    C312   O666      0.54537      .   S
    C82    O666      0.54537      .   S
    C312   O667      0.67654      .   S
    C456   O667      0.67654      .   S
    C496   O668      0.65090      .   S
    C288   O668      0.65090      .   S
    C497   O669      0.65089      .   S
    C289   O669      0.65089      .   S
    C304   O670      0.67629      .   S
    C456   O670      0.67629      .   S
    C304   O671      0.54524      .   S
    C76    O671      0.54524      .   S
    C305   O672      0.67600      .   S
    C457   O672      0.67600      .   S
    C305   O673      0.54487      .   S
    C77    O673      0.54487      .   S
    C289   O674      0.75342      .   S
    C287   O674      0.75342      .   S
    C288   O675      0.75343      .   S
    C286   O675      0.75343      .   S
    C131   O676      0.54489      .   S
    C361   O676      0.54489      .   S
    C130   O677      0.54489      .   S
    C360   O677      0.54489      .   S
    C465   O678      0.67619      .   S
    C361   O678      0.67619      .   S
    C465   O679      0.67673      .   S
    C369   O679      0.67673      .   S
    C464   O680      0.67604      .   S
    C360   O680      0.67604      .   S
    C464   O681      0.67655      .   S
    C368   O681      0.67655      .   S
    C137   O682      0.54539      .   S
    C369   O682      0.54539      .   S
    C136   O683      0.54538      .   S
    C368   O683      0.54538      .   S
    C456   O684      1.06528      .   S
    C2     O684      1.06528      .   S
    C457   O685      1.06531      .   S
    C3     O685      1.06531      .   S
    C63    O686      0.54333      .   S
    C285   O686      0.54333      .   S
    C62    O687      0.54332      .   S
    C284   O687      0.54332      .   S
    C344   O688      0.65087      .   S
    C506   O688      0.65087      .   S
    C344   O689      0.62641      .   S
    C504   O689      0.62641      .   S
    C345   O690      0.65087      .   S
    C507   O690      0.65087      .   S
    C345   O691      0.62639      .   S
    C505   O691      0.62639      .   S
    C360   O692      0.69481      .   S
    C362   O692      0.69481      .   S
    C361   O693      0.69479      .   S
    C363   O693      0.69479      .   S
    C506   O694      0.98305      .   S
    C2     O694      0.98305      .   S
    C507   O695      0.98305      .   S
    C3     O695      0.98305      .   S
    C368   O696      0.69396      .   S
    C366   O696      0.69396      .   S
    C369   O697      0.69428      .   S
    C367   O697      0.69428      .   S
    C287   O698      0.69816      .   S
    C285   O698      0.69816      .   S
    C287   O699      0.70279      .   S
    C290   O699      0.70279  1_455   S
    C286   O700      0.69817      .   S
    C284   O700      0.69817      .   S
    C286   O701      0.70292      .   S
    C291   O701      0.70292      .   S
    C285   O702      0.70097      .   S
    C283   O702      0.70097      .   S
    C284   O703      0.70097      .   S
    C282   O703      0.70097      .   S
    C154   O704      0.54889      .   S
    C378   O704      0.54889      .   S
    C155   O705      0.54951      .   S
    C379   O705      0.54951      .   S
    C491   O706      0.99494      .   S
    C3     O706      0.99494      .   S
    C491   O707      0.65398      .   S
    C281   O707      0.65398      .   S
    C490   O708      0.99493      .   S
    C2     O708      0.99493      .   S
    C490   O709      0.65400      .   S
    C280   O709      0.65400      .   S
    C64    O710      0.54360      .   S
    C290   O710      0.54360      .   S
    C65    O711      0.54359      .   S
    C291   O711      0.54359      .   S
    C363   O712      0.54534      .   S
    C133   O712      0.54534      .   S
    C363   O713      0.69993      .   S
    C365   O713      0.69993      .   S
    C362   O714      0.54534      .   S
    C132   O714      0.54534      .   S
    C362   O715      0.69991      .   S
    C364   O715      0.69991      .   S
    C3     O716      1.02310      .   S
    C455   O716      1.02310      .   S
    C2     O717      1.02308      .   S
    C454   O717      1.02308      .   S
    C366   O718      0.54495      .   S
    C134   O718      0.54495      .   S
    C366   O719      0.70006      .   S
    C364   O719      0.70006      .   S
    C367   O720      0.54477      .   S
    C135   O720      0.54477      .   S
    C367   O721      0.69991      .   S
    C365   O721      0.69991      .   S
    C291   O722      0.69997      .   S
    C293   O722      0.69997      .   S
    C290   O723      0.69997      .   S
    C292   O723      0.69997      .   S
    C151   O724      0.54864      .   S
    C377   O724      0.54864      .   S
    C150   O725      0.54844      .   S
    C376   O725      0.54844      .   S
    C283   O726      0.75489      .   S
    C281   O726      0.75489      .   S
    C283   O727      0.69898      .   S
    C295   O727      0.69898      .   S
    C282   O728      0.75487      .   S
    C280   O728      0.75487      .   S
    C282   O729      0.69898      .   S
    C294   O729      0.69898      .   S
    C152   O730      0.55543      .   S
    C376   O730      0.55543      .   S
    C153   O731      0.55550      .   S
    C377   O731      0.55550      .   S
    C365   O732      0.75458      .   S
    C371   O732      0.75458      .   S
    C364   O733      0.75459      .   S
    C370   O733      0.75459      .   S
    C281   O734      0.62259      .   S
    C493   O734      0.62259      .   S
    C280   O735      0.62257      .   S
    C492   O735      0.62257      .   S
    C68    O736      0.55170      .   S
    C296   O736      0.55170      .   S
    C69    O737      0.55170      .   S
    C297   O737      0.55170      .   S
    C378   O738      0.75881      .   S
    C376   O738      0.75881      .   S
    C378   O739      0.55597      .   S
    C156   O739      0.55597      .   S
    C378   O740      0.73424      .   S
    C466   O740      0.73424      .   S
    C379   O741      0.75879      .   S
    C377   O741      0.75879      .   S
    C379   O742      0.55589      .   S
    C157   O742      0.55589      .   S
    C379   O743      0.73376      .   S
    C467   O743      0.73376      .   S
    C376   O744      0.73409      .   S
    C468   O744      0.73409      .   S
    C377   O745      0.73381      .   S
    C469   O745      0.73381      .   S
    C292   O746      0.70125  1_455   S
    C295   O746      0.70125      .   S
    C292   O747      0.68836      .   S
    C498   O747      0.68836      .   S
    C293   O748      0.70134      .   S
    C294   O748      0.70134      .   S
    C293   O749      0.68794      .   S
    C499   O749      0.68794      .   S
    C295   O750      0.54438      .   S
    C67    O750      0.54438      .   S
    C294   O751      0.54433      .   S
    C66    O751      0.54433      .   S
    C160   O752      0.55095      .   S
    C380   O752      0.55095      .   S
    C161   O753      0.55093      .   S
    C381   O753      0.55093      .   S
    C73    O754      0.54584      .   S
    C301   O754      0.54584      .   S
    C72    O755      0.54584      .   S
    C300   O755      0.54584      .   S
    C57    O756      0.54546      .   S
    C275   O756      0.54546      .   S
    C56    O757      0.54545      .   S
    C274   O757      0.54545      .   S
    C140   O758      0.55627      .   S
    C370   O758      0.55627      .   S
    C141   O759      0.55627      .   S
    C371   O759      0.55627      .   S
    C370   O760      0.72699      .   S
    C466   O760      0.72699      .   S
    C370   O761      0.55255      .   S
    C138   O761      0.55255      .   S
    C371   O762      0.72698      .   S
    C467   O762      0.72698      .   S
    C371   O763      0.55255      .   S
    C139   O763      0.55255      .   S
    C297   O764      0.72216      .   S
    C499   O764      0.72216      .   S
    C297   O765      0.55191      .   S
    C71    O765      0.55191      .   S
    C297   O766      0.75191      .   S
    C299   O766      0.75191      .   S
    C296   O767      0.72218      .   S
    C498   O767      0.72218      .   S
    C296   O768      0.55191      .   S
    C70    O768      0.55191      .   S
    C296   O769      0.75171      .   S
    C298   O769      0.75171      .   S
    C466   O770      0.73263      .   S
    C372   O770      0.73263      .   S
    C467   O771      0.73265      .   S
    C373   O771      0.73265      .   S
    C454   O772      0.67658      .   S
    C274   O772      0.67658      .   S
    C454   O773      0.67599      .   S
    C276   O773      0.67599      .   S
    C455   O774      0.67659      .   S
    C275   O774      0.67659      .   S
    C455   O775      0.67600      .   S
    C277   O775      0.67600      .   S
    C58    O776      0.57703      .   S
    C276   O776      0.57703      .   S
    C469   O777      0.72699      .   S
    C380   O777      0.72699      .   S
    C469   O778      0.73367      .   S
    C375   O778      0.73367      .   S
    C468   O779      0.72688  1_455   S
    C381   O779      0.72688      .   S
    C468   O780      0.73367      .   S
    C374   O780      0.73367      .   S
    C159   O781      0.55716      .   S
    C381   O781      0.55716      .   S
    C158   O782      0.55715      .   S
    C380   O782      0.55715      .   S
    C381   O783      0.75407      .   S
    C383   O783      0.75407      .   S
    C380   O784      0.75406      .   S
    C382   O784      0.75406      .   S
    C274   O785      0.69516      .   S
    C272   O785      0.69516      .   S
    C275   O786      0.69514      .   S
    C273   O786      0.69514      .   S
    C59    O787      0.54380      .   S
    C277   O787      0.54380      .   S
    C300   O788      0.70087      .   S
    C298   O788      0.70087      .   S
    C300   O789      0.69785      .   S
    C414   O789      0.69785      .   S
    C301   O790      0.70096      .   S
    C299   O790      0.70096      .   S
    C301   O791      0.69785      .   S
    C415   O791      0.69785      .   S
    C277   O792      0.69293      .   S
    C279   O792      0.69293      .   S
    C276   O793      0.69294      .   S
    C278   O793      0.69294      .   S
    C298   O794      0.70146      .   S
    C302   O794      0.70146      .   S
    C299   O795      0.70116      .   S
    C303   O795      0.70116      .   S
    C147   O796      0.55692      .   S
    C375   O796      0.55692      .   S
    C146   O797      0.55692      .   S
    C374   O797      0.55692      .   S
    C182   O798      0.54592      .   S
    C414   O798      0.54592      .   S
    C183   O799      0.54569      .   S
    C415   O799      0.54569      .   S
    C372   O800      0.75998      .   S
    C374   O800      0.75998      .   S
    C372   O801      0.55626      .   S
    C142   O801      0.55626      .   S
    C372   O802      0.54883      .   S
    C144   O802      0.54883      .   S
    C373   O803      0.75997      .   S
    C375   O803      0.75997      .   S
    C373   O804      0.55609      .   S
    C143   O804      0.55609      .   S
    C373   O805      0.54882      .   S
    C145   O805      0.54882      .   S
    C375   O806      0.54861      .   S
    C149   O806      0.54861      .   S
    C374   O807      0.54861      .   S
    C148   O807      0.54861      .   S
    C169   O808      0.54470      .   S
    C391   O808      0.54470      .   S
    C168   O809      0.54449      .   S
    C390   O809      0.54449      .   S
    C40    O810      0.54870      .   S
    C262   O810      0.54870      .   S
    C41    O811      0.54861      .   S
    C263   O811      0.54861      .   S
    C272   O812      0.54474      .   S
    C54    O812      0.54474      .   S
    C272   O813      0.70025      .   S
    C270   O813      0.70025      .   S
    C273   O814      0.54474      .   S
    C55    O814      0.54474      .   S
    C273   O815      0.70026      .   S
    C271   O815      0.70026      .   S
    C414   O816      0.70116      .   S
    C410   O816      0.70116      .   S
    C415   O817      0.70117      .   S
    C411   O817      0.70117      .   S
    C383   O818      0.69997      .   S
    C391   O818      0.69997      .   S
    C383   O819      0.70024      .   S
    C385   O819      0.70024      .   S
    C382   O820      0.69996      .   S
    C390   O820      0.69996      .   S
    C382   O821      0.70024      .   S
    C384   O821      0.70024      .   S
    C37    O822      0.55093      .   S
    C261   O822      0.55093      .   S
    C36    O823      0.54881      .   S
    C260   O823      0.54881      .   S
    C278   O824      0.70009      .   S
    C270   O824      0.70009      .   S
    C278   O825      0.54476      .   S
    C60    O825      0.54476      .   S
    C279   O826      0.70009      .   S
    C271   O826      0.70009      .   S
    C279   O827      0.54455      .   S
    C61    O827      0.54455      .   S
    C390   O828      0.69333      .   S
    C388   O828      0.69333      .   S
    C391   O829      0.69334      .   S
    C389   O829      0.69334      .   S
    C162   O830      0.54475      .   S
    C384   O830      0.54475      .   S
    C163   O831      0.54475      .   S
    C385   O831      0.54475      .   S
    C271   O832      0.75408      .   S
    C269   O832      0.75408      .   S
    C270   O833      0.75410      .   S
    C268   O833      0.75410      .   S
    C34    O834      0.55628      .   S
    C260   O834      0.55628      .   S
    C35    O835      0.55628      .   S
    C261   O835      0.55628      .   S
    C303   O836      0.54568      .   S
    C75    O836      0.54568      .   S
    C303   O837      0.69785      .   S
    C413   O837      0.69785      .   S
    C302   O838      0.54568      .   S
    C74    O838      0.54568      .   S
    C302   O839      0.69785      .   S
    C412   O839      0.69785      .   S
    C384   O840      0.69515      .   S
    C386   O840      0.69515      .   S
    C385   O841      0.69443      .   S
    C387   O841      0.69443      .   S
    C262   O842      0.75998      .   S
    C260   O842      0.75998      .   S
    C262   O843      0.55692      .   S
    C38    O843      0.55692      .   S
    C262   O844      0.73374      .   S
    C452   O844      0.73374      .   S
    C263   O845      0.75998      .   S
    C261   O845      0.75998      .   S
    C263   O846      0.55693      .   S
    C39    O846      0.55693      .   S
    C263   O847      0.73374      .   S
    C453   O847      0.73374      .   S
    C260   O848      0.73255      .   S
    C450   O848      0.73255      .   S
    C261   O849      0.73257      .   S
    C451   O849      0.73257      .   S
    C410   O850      0.70096      .   S
    C412   O850      0.70096      .   S
    C410   O851      0.75184      .   S
    C408   O851      0.75184      .   S
    C411   O852      0.70096      .   S
    C413   O852      0.70096      .   S
    C411   O853      0.75192      .   S
    C409   O853      0.75192      .   S
    C31    O854      0.55186      .   S
    C259   O854      0.55186      .   S
    C30    O855      0.55185      .   S
    C258   O855      0.55185      .   S
    C388   O856      0.54377      .   S
    C166   O856      0.54377      .   S
    C388   O857      0.67598      .   S
    C470   O857      0.67598      .   S
    C389   O858      0.54377      .   S
    C167   O858      0.54377      .   S
    C389   O859      0.67597      .   S
    C471   O859      0.67597      .   S
    C412   O860      0.54505      .   S
    C180   O860      0.54505      .   S
    C413   O861      0.54584      .   S
    C181   O861      0.54584      .   S
    C387   O862      0.67682      .   S
    C471   O862      0.67682      .   S
    C387   O863      0.54598      .   S
    C165   O863      0.54598      .   S
    C386   O864      0.67659      .   S
    C470   O864      0.67659      .   S
    C386   O865      0.54545      .   S
    C164   O865      0.54545      .   S
    C269   O866      0.55715      .   S
    C51    O866      0.55715      .   S
    C269   O867      0.72699      .   S
    C452   O867      0.72699      .   S
    C269   O868      0.55093      .   S
    C53    O868      0.55093      .   S
    C268   O869      0.55714      .   S
    C50    O869      0.55714      .   S
    C268   O870      0.72687      .   S
    C453   O870      0.72687  1_655   S
    C268   O871      0.55093      .   S
    C52    O871      0.55093      .   S
    C453   O872      0.73382      .   S
    C265   O872      0.73382      .   S
    C452   O873      0.73382      .   S
    C264   O873      0.73382      .   S
    C178   O874      0.55190      .   S
    C408   O874      0.55190      .   S
    C179   O875      0.55190      .   S
    C409   O875      0.55190      .   S
    C470   O876      1.02306      .   S
    C6     O876      1.02306      .   S
    C471   O877      1.02305      .   S
    C7     O877      1.02305      .   S
    C174   O878      0.54433      .   S
    C406   O878      0.54433      .   S
    C175   O879      0.54433      .   S
    C407   O879      0.54433      .   S
    C450   O880      0.72694      .   S
    C258   O880      0.72694      .   S
    C450   O881      0.73382      .   S
    C266   O881      0.73382      .   S
    C451   O882      0.72693      .   S
    C259   O882      0.72693      .   S
    C451   O883      0.73383      .   S
    C267   O883      0.73383      .   S
    C519   O884      0.72219      .   S
    C409   O884      0.72219      .   S
    C519   O885      0.68842      .   S
    C405   O885      0.68842      .   S
    C518   O886      0.72217      .   S
    C408   O886      0.72217      .   S
    C518   O887      0.68841      .   S
    C404   O887      0.68841      .   S
    C408   O888      0.55170      .   S
    C176   O888      0.55170      .   S
    C409   O889      0.55170      .   S
    C177   O889      0.55170      .   S
    C259   O890      0.55634      .   S
    C33    O890      0.55634      .   S
    C259   O891      0.75521      .   S
    C253   O891      0.75521      .   S
    C258   O892      0.55633      .   S
    C32    O892      0.55633      .   S
    C258   O893      0.75522      .   S
    C252   O893      0.75522      .   S
    C513   O894      0.62250      .   S
    C393   O894      0.62250      .   S
    C512   O895      0.62212      .   S
    C392   O895      0.62212      .   S
    C406   O896      0.70126      .   S
    C405   O896      0.70126  1_655   S
    C406   O897      0.69903      .   S
    C394   O897      0.69903      .   S
    C407   O898      0.70135      .   S
    C404   O898      0.70135      .   S
    C407   O899      0.69904      .   S
    C395   O899      0.69904      .   S
    C404   O900      0.69999      .   S
    C402   O900      0.69999      .   S
    C405   O901      0.69998      .   S
    C403   O901      0.69998      .   S
    C48    O902      0.55590      .   S
    C266   O902      0.55590      .   S
    C49    O903      0.55589      .   S
    C267   O903      0.55589      .   S
    C264   O904      0.75879      .   S
    C266   O904      0.75879      .   S
    C264   O905      0.55550      .   S
    C44    O905      0.55550      .   S
    C264   O906      0.54857      .   S
    C42    O906      0.54857      .   S
    C265   O907      0.75881      .   S
    C267   O907      0.75881      .   S
    C265   O908      0.55548      .   S
    C45    O908      0.55548      .   S
    C265   O909      0.54855      .   S
    C43    O909      0.54855      .   S
    C267   O910      0.54888      .   S
    C47    O910      0.54888      .   S
    C266   O911      0.54952      .   S
    C46    O911      0.54952      .   S
    C392   O912      0.75499      .   S
    C394   O912      0.75499      .   S
    C392   O913      0.65443      .   S
    C510   O913      0.65443      .   S
    C393   O914      0.75499      .   S
    C395   O914      0.75499      .   S
    C393   O915      0.65443      .   S
    C511   O915      0.65443      .   S
    C252   O916      0.69993      .   S
    C254   O916      0.69993      .   S
    C252   O917      0.69973      .   S
    C250   O917      0.69973      .   S
    C253   O918      0.69994      .   S
    C255   O918      0.69994      .   S
    C253   O919      0.69973      .   S
    C251   O919      0.69973      .   S
    C26    O920      0.54479      .   S
    C254   O920      0.54479      .   S
    C27    O921      0.54478      .   S
    C255   O921      0.54478      .   S
    C395   O922      0.70097      .   S
    C397   O922      0.70097      .   S
    C394   O923      0.70099      .   S
    C396   O923      0.70099      .   S
    C24    O924      0.54522      .   S
    C250   O924      0.54522      .   S
    C25    O925      0.54522      .   S
    C251   O925      0.54522      .   S
    C403   O926      0.54359      .   S
    C173   O926      0.54359      .   S
    C403   O927      0.70280  1_655   S
    C398   O927      0.70280      .   S
    C402   O928      0.54359      .   S
    C172   O928      0.54359      .   S
    C402   O929      0.70293      .   S
    C399   O929      0.70293      .   S
    C254   O930      0.69423      .   S
    C256   O930      0.69423      .   S
    C255   O931      0.69421      .   S
    C257   O931      0.69421      .   S
    C6     O932      0.99498      .   S
    C510   O932      0.99498      .   S
    C6     O933      0.98305      .   S
    C486   O933      0.98305      .   S
    C6     O934      1.06519      .   S
    C472   O934      1.06519      .   S
    C7     O935      0.99496      .   S
    C511   O935      0.99496      .   S
    C7     O936      0.98305      .   S
    C487   O936      0.98305      .   S
    C7     O937      1.06516      .   S
    C473   O937      1.06516      .   S
    C250   O938      0.69515      .   S
    C248   O938      0.69515      .   S
    C251   O939      0.69514      .   S
    C249   O939      0.69514      .   S
    C484   O940      0.62641      .   S
    C232   O940      0.62641      .   S
    C485   O941      0.62643      .   S
    C233   O941      0.62643      .   S
    C397   O942      0.69817      .   S
    C399   O942      0.69817      .   S
    C397   O943      0.54331      .   S
    C171   O943      0.54331      .   S
    C396   O944      0.69817      .   S
    C398   O944      0.69817      .   S
    C396   O945      0.54327      .   S
    C170   O945      0.54327      .   S
    C399   O946      0.75343      .   S
    C401   O946      0.75343      .   S
    C398   O947      0.75341      .   S
    C400   O947      0.75341      .   S
    C257   O948      0.54538      .   S
    C29    O948      0.54538      .   S
    C257   O949      0.67646      .   S
    C449   O949      0.67646      .   S
    C256   O950      0.54538      .   S
    C28    O950      0.54538      .   S
    C256   O951      0.67647      .   S
    C448   O951      0.67647      .   S
    C487   O952      0.65087      .   S
    C233   O952      0.65087      .   S
    C486   O953      0.65086      .   S
    C232   O953      0.65086      .   S
    C249   O954      0.67595      .   S
    C449   O954      0.67595      .   S
    C249   O955      0.54486      .   S
    C23    O955      0.54486      .   S
    C248   O956      0.67595      .   S
    C448   O956      0.67595      .   S
    C248   O957      0.54486      .   S
    C22    O957      0.54486      .   S
    C233   O958      0.75339      .   S
    C231   O958      0.75339      .   S
    C232   O959      0.75339      .   S
    C230   O959      0.75339      .   S
    C184   O960      0.54490      .   S
    C416   O960      0.54490      .   S
    C185   O961      0.54486      .   S
    C417   O961      0.54486      .   S
    C472   O962      0.67604      .   S
    C416   O962      0.67604      .   S
    C472   O963      0.67649      .   S
    C424   O963      0.67649      .   S
    C473   O964      0.67603      .   S
    C417   O964      0.67603      .   S
    C473   O965      0.67657      .   S
    C425   O965      0.67657      .   S
    C190   O966      0.54535      .   S
    C424   O966      0.54535      .   S
    C191   O967      0.54540      .   S
    C425   O967      0.54540      .   S
    C449   O968      1.06542      .   S
    C1     O968      1.06542      .   S
    C448   O969      1.06545      .   S
    C0     O969      1.06545      .   S
    C8     O970      0.54769      .   S
    C228   O970      0.54769      .   S
    C9     O971      0.54331      .   S
    C229   O971      0.54331      .   S
    C400   O972      0.65089      .   S
    C516   O972      0.65089      .   S
    C400   O973      0.62641      .   S
    C514   O973      0.62641      .   S
    C401   O974      0.65089      .   S
    C517   O974      0.65089      .   S
    C401   O975      0.62639      .   S
    C515   O975      0.62639      .   S
    C417   O976      0.69481      .   S
    C419   O976      0.69481      .   S
    C416   O977      0.69479      .   S
    C418   O977      0.69479      .   S
    C517   O978      0.98272      .   S
    C1     O978      0.98272      .   S
    C516   O979      0.98271      .   S
    C0     O979      0.98271      .   S
    C424   O980      0.69435      .   S
    C422   O980      0.69435      .   S
    C425   O981      0.69423      .   S
    C423   O981      0.69423      .   S
    C230   O982      0.69805  1_565   S
    C228   O982      0.69805      .   S
    C230   O983      0.70291      .   S
    C234   O983      0.70291      .   S
    C231   O984      0.69805  1_565   S
    C229   O984      0.69805      .   S
    C231   O985      0.70291      .   S
    C235   O985      0.70291      .   S
    C229   O986      0.70099      .   S
    C227   O986      0.70099      .   S
    C228   O987      0.70099      .   S
    C226   O987      0.70099      .   S
    C208   O988      0.54950      .   S
    C434   O988      0.54950      .   S
    C209   O989      0.54951      .   S
    C435   O989      0.54951      .   S
    C480   O990      0.99499      .   S
    C1     O990      0.99499      .   S
    C480   O991      0.65403      .   S
    C224   O991      0.65403      .   S
    C481   O992      0.99492      .   S
    C0     O992      0.99492  1_455   S
    C481   O993      0.65403      .   S
    C225   O993      0.65403      .   S
    C11    O994      0.54359      .   S
    C235   O994      0.54359      .   S
    C10    O995      0.54359      .   S
    C234   O995      0.54359      .   S
    C418   O996      0.54534      .   S
    C186   O996      0.54534      .   S
    C418   O997      0.69993      .   S
    C420   O997      0.69993      .   S
    C419   O998      0.54536      .   S
    C187   O998      0.54536      .   S
    C419   O999      0.69994      .   S
    C421   O999      0.69994      .   S
    C1     O1000     1.02368      .   S
    C463   O1000     1.02368      .   S
    C0     O1001     1.02371      .   S
    C462   O1001     1.02371      .   S
    C422   O1002     0.54476      .   S
    C188   O1002     0.54476      .   S
    C422   O1003     0.69993      .   S
    C420   O1003     0.69993      .   S
    C423   O1004     0.51078      .   S
    C189   O1004     0.51078  1_455   S
    C423   O1005     0.69992      .   S
    C421   O1005     0.69992      .   S
    C235   O1006     0.69991  1_565   S
    C237   O1006     0.69991      .   S
    C234   O1007     0.69991  1_565   S
    C236   O1007     0.69991      .   S
    C205   O1008     0.54860      .   S
    C433   O1008     0.54860      .   S
    C204   O1009     0.54860      .   S
    C432   O1009     0.54860      .   S
    C227   O1010     0.75494      .   S
    C225   O1010     0.75494      .   S
    C227   O1011     0.69900      .   S
    C239   O1011     0.69900      .   S
    C226   O1012     0.75493      .   S
    C224   O1012     0.75493      .   S
    C226   O1013     0.69900      .   S
    C238   O1013     0.69900      .   S
    C206   O1014     0.55550      .   S
    C432   O1014     0.55550      .   S
    C207   O1015     0.55550      .   S
    C433   O1015     0.55550      .   S
    C225   O1016     0.62257      .   S
    C483   O1016     0.62257      .   S
    C224   O1017     0.62257      .   S
    C482   O1017     0.62257      .   S
    C420   O1018     0.75521      .   S
    C426   O1018     0.75521      .   S
    C421   O1019     0.75523      .   S
    C427   O1019     0.75523      .   S
    C14    O1020     0.55168      .   S
    C240   O1020     0.55168      .   S
    C15    O1021     0.55169      .   S
    C241   O1021     0.55169      .   S
    C435   O1022     0.75881      .   S
    C433   O1022     0.75881      .   S
    C435   O1023     0.55589      .   S
    C211   O1023     0.55589      .   S
    C435   O1024     0.73377      .   S
    C475   O1024     0.73377      .   S
    C434   O1025     0.75881      .   S
    C432   O1025     0.75881      .   S
    C434   O1026     0.55589      .   S
    C210   O1026     0.55589      .   S
    C434   O1027     0.73377      .   S
    C474   O1027     0.73377      .   S
    C432   O1028     0.73377      .   S
    C476   O1028     0.73377      .   S
    C433   O1029     0.73367      .   S
    C477   O1029     0.73367      .   S
    C236   O1030     0.70137      .   S
    C238   O1030     0.70137      .   S
    C236   O1031     0.68841      .   S
    C488   O1031     0.68841      .   S
    C237   O1032     0.70137      .   S
    C239   O1032     0.70137      .   S
    C237   O1033     0.68840      .   S
    C489   O1033     0.68840      .   S
    C238   O1034     0.54433      .   S
    C12    O1034     0.54433      .   S
    C239   O1035     0.54432      .   S
    C13    O1035     0.54432      .   S
    C215   O1036     0.55125      .   S
    C437   O1036     0.55125      .   S
    C214   O1037     0.55091      .   S
    C436   O1037     0.55091      .   S
    C19    O1038     0.54579      .   S
    C245   O1038     0.54579      .   S
    C18    O1039     0.54579      .   S
    C244   O1039     0.54579      .   S
    C111   O1040     0.54547      .   S
    C331   O1040     0.54547      .   S
    C110   O1041     0.54547      .   S
    C330   O1041     0.54547      .   S
    C194   O1042     0.55633      .   S
    C426   O1042     0.55633      .   S
    C195   O1043     0.55632      .   S
    C427   O1043     0.55632      .   S
    C427   O1044     0.72679  1_655   S
    C474   O1044     0.72679      .   S
    C427   O1045     0.55182      .   S
    C193   O1045     0.55182      .   S
    C426   O1046     0.72691      .   S
    C475   O1046     0.72691      .   S
    C426   O1047     0.55140      .   S
    C192   O1047     0.55140      .   S
    C240   O1048     0.72207  1_565   S
    C488   O1048     0.72207      .   S
    C240   O1049     0.55192      .   S
    C16    O1049     0.55192      .   S
    C240   O1050     0.75189      .   S
    C242   O1050     0.75189      .   S
    C241   O1051     0.72206  1_565   S
    C489   O1051     0.72206      .   S
    C241   O1052     0.55192      .   S
    C17    O1052     0.55192      .   S
    C241   O1053     0.75194      .   S
    C243   O1053     0.75194      .   S
    C474   O1054     0.73259      .   S
    C428   O1054     0.73259      .   S
    C475   O1055     0.73258      .   S
    C429   O1055     0.73258      .   S
    C462   O1056     0.67661      .   S
    C330   O1056     0.67661      .   S
    C462   O1057     0.67597      .   S
    C332   O1057     0.67597      .   S
    C463   O1058     0.67660      .   S
    C331   O1058     0.67660      .   S
    C463   O1059     0.67597      .   S
    C333   O1059     0.67597      .   S
    C477   O1060     0.72698      .   S
    C437   O1060     0.72698      .   S
    C477   O1061     0.73378      .   S
    C431   O1061     0.73378      .   S
    C212   O1062     0.55717      .   S
    C436   O1062     0.55717      .   S
    C476   O1063     0.72698      .   S
    C436   O1063     0.72698      .   S
    C476   O1064     0.73323      .   S
    C430   O1064     0.73323      .   S
    C213   O1065     0.55716      .   S
    C437   O1065     0.55716      .   S
    C436   O1066     0.75413      .   S
    C438   O1066     0.75413      .   S
    C437   O1067     0.75406      .   S
    C439   O1067     0.75406      .   S
    C330   O1068     0.69509      .   S
    C328   O1068     0.69509      .   S
    C331   O1069     0.69510      .   S
    C329   O1069     0.69510      .   S
    C113   O1070     0.54394      .   S
    C333   O1070     0.54394      .   S
    C112   O1071     0.54376      .   S
    C332   O1071     0.54376      .   S
    C245   O1072     0.70076  1_645   S
    C242   O1072     0.70076      .   S
    C245   O1073     0.69726      .   S
    C359   O1073     0.69726      .   S
    C244   O1074     0.70095  1_545   S
    C243   O1074     0.70095      .   S
    C244   O1075     0.69782      .   S
    C358   O1075     0.69782      .   S
    C332   O1076     0.69306      .   S
    C334   O1076     0.69306      .   S
    C333   O1077     0.69307      .   S
    C335   O1077     0.69307      .   S
    C200   O1078     0.55683      .   S
    C430   O1078     0.55683      .   S
    C201   O1079     0.55694      .   S
    C431   O1079     0.55694      .   S
    C128   O1080     0.54568      .   S
    C358   O1080     0.54568      .   S
    C129   O1081     0.54544      .   S
    C359   O1081     0.54544      .   S
    C428   O1082     0.75994      .   S
    C430   O1082     0.75994      .   S
    C428   O1083     0.55622      .   S
    C196   O1083     0.55622      .   S
    C429   O1084     0.75995      .   S
    C431   O1084     0.75995      .   S
    C429   O1085     0.55628      .   S
    C197   O1085     0.55628      .   S
    C329   O1086     0.54466      .   S
    C109   O1086     0.54466      .   S
    C328   O1087     0.54475      .   S
    C108   O1087     0.54475      .   S
