# CIF file generated by openbabel 2.4.90, see http://openbabel.sf.net
data_I
_chemical_name_common ''
_cell_length_a 18.655
_cell_length_b 17.343
_cell_length_c 20.282
_cell_angle_alpha 89.999
_cell_angle_beta 90.009
_cell_angle_gamma 98.643
_space_group_name_H-M_alt 'P 1'
_space_group_name_Hall 'P 1'
loop_
    _symmetry_equiv_pos_as_xyz
    x,y,z
loop_
    _atom_site_label
    _atom_site_type_symbol
    _atom_site_fract_x
    _atom_site_fract_y
    _atom_site_fract_z
    _atom_site_occupancy
    Zr0     Zr   0.03148   0.27337   0.81630   1.000
    Zr1     Zr   0.53148   0.27338   0.81630   1.000
    Zr2     Zr   0.21856   0.22660   0.31636   1.000
    Zr3     Zr   0.71856   0.22661   0.31636   1.000
    Zr4     Zr   0.46853   0.72664   0.18362   1.000
    Zr5     Zr   0.96854   0.72664   0.18362   1.000
    Zr6     Zr   0.28145   0.77341   0.68362   1.000
    Zr7     Zr   0.78146   0.77341   0.68362   1.000
    Zr8     Zr   0.40117   0.17910   0.84268   1.000
    Zr9     Zr   0.90117   0.17910   0.84268   1.000
    Zr10    Zr   0.30769   0.92172   0.73555   1.000
    Zr11    Zr   0.80769   0.92172   0.73555   1.000
    Zr12    Zr   0.34885   0.32091   0.34270   1.000
    Zr13    Zr   0.84885   0.32091   0.34270   1.000
    Zr14    Zr   0.44225   0.57830   0.23555   1.000
    Zr15    Zr   0.94225   0.57830   0.23555   1.000
    Zr16    Zr   0.09883   0.82092   0.15730   1.000
    Zr17    Zr   0.59883   0.82092   0.15730   1.000
    Zr18    Zr   0.19232   0.07829   0.26443   1.000
    Zr19    Zr   0.69232   0.07829   0.26443   1.000
    Zr20    Zr   0.15116   0.67911   0.65720   1.000
    Zr21    Zr   0.65116   0.67911   0.65720   1.000
    Zr22    Zr   0.05775   0.42171   0.76443   1.000
    Zr23    Zr   0.55776   0.42171   0.76443   1.000
    Zr24    Zr   0.45995   0.17644   0.80813   1.000
    Zr25    Zr   0.95995   0.17644   0.80813   1.000
    Zr26    Zr   0.39317   0.23325   0.88099   1.000
    Zr27    Zr   0.89318   0.23325   0.88099   1.000
    Zr28    Zr   0.36531   0.92655   0.70308   1.000
    Zr29    Zr   0.86532   0.92655   0.70308   1.000
    Zr30    Zr   0.25566   0.86266   0.73326   1.000
    Zr31    Zr   0.75566   0.86266   0.73326   1.000
    Zr32    Zr   0.29006   0.32354   0.30814   1.000
    Zr33    Zr   0.79007   0.32355   0.30814   1.000
    Zr34    Zr   0.35686   0.26675   0.38101   1.000
    Zr35    Zr   0.85686   0.26675   0.38101   1.000
    Zr36    Zr   0.38463   0.57347   0.20305   1.000
    Zr37    Zr   0.88463   0.57347   0.20300   1.000
    Zr38    Zr   0.49429   0.63736   0.23326   1.000
    Zr39    Zr   0.99429   0.63736   0.23326   1.000
    Zr40    Zr   0.04005   0.82357   0.19185   1.000
    Zr41    Zr   0.54005   0.82357   0.19185   1.000
    Zr42    Zr   0.10683   0.76676   0.11899   1.000
    Zr43    Zr   0.60683   0.76676   0.11899   1.000
    Zr44    Zr   0.13469   0.07346   0.29690   1.000
    Zr45    Zr   0.63469   0.07346   0.29690   1.000
    Zr46    Zr   0.24435   0.13735   0.26672   1.000
    Zr47    Zr   0.74435   0.13735   0.26672   1.000
    Zr48    Zr   0.20994   0.67647   0.69184   1.000
    Zr49    Zr   0.70994   0.67647   0.69184   1.000
    Zr50    Zr   0.14314   0.73326   0.61896   1.000
    Zr51    Zr   0.64314   0.73326   0.61890   1.000
    Zr52    Zr   0.11538   0.42654   0.79692   1.000
    Zr53    Zr   0.61538   0.42655   0.79692   1.000
    Zr54    Zr   0.00572   0.36265   0.76672   1.000
    Zr55    Zr   0.50572   0.36265   0.76672   1.000
    O56     O    0.60283   0.79384   0.13814   1.000
    O57     O    0.10283   0.79384   0.13814   1.000
    O58     O    0.56944   0.82224   0.17457   1.000
    O59     O    0.06944   0.82224   0.17457   1.000
    O60     O    0.50429   0.77510   0.18773   1.000
    O61     O    0.48141   0.68200   0.20844   1.000
    O62     O    0.00429   0.77510   0.18773   1.000
    O63     O    0.98141   0.68200   0.20844   1.000
    O64     O    0.91344   0.57589   0.21927   1.000
    O65     O    0.41344   0.57589   0.21930   1.000
    O66     O    0.46827   0.60783   0.23440   1.000
    O67     O    0.96827   0.60783   0.23440   1.000
    O68     O    0.21833   0.10782   0.26557   1.000
    O69     O    0.16350   0.07588   0.28066   1.000
    O70     O    0.71833   0.10782   0.26557   1.000
    O71     O    0.66351   0.07588   0.28066   1.000
    O72     O    0.23145   0.18197   0.29154   1.000
    O73     O    0.73146   0.18198   0.29154   1.000
    O74     O    0.75431   0.27508   0.31225   1.000
    O75     O    0.81946   0.32223   0.32542   1.000
    O76     O    0.25431   0.27507   0.31225   1.000
    O77     O    0.31945   0.32222   0.32542   1.000
    O78     O    0.85286   0.29383   0.36185   1.000
    O79     O    0.35285   0.29383   0.36185   1.000
    O80     O    0.64715   0.70619   0.63805   1.000
    O81     O    0.14715   0.70618   0.63808   1.000
    O82     O    0.18055   0.67779   0.67452   1.000
    O83     O    0.68055   0.67779   0.67452   1.000
    O84     O    0.24570   0.72494   0.68773   1.000
    O85     O    0.26856   0.81804   0.70844   1.000
    O86     O    0.74570   0.72494   0.68773   1.000
    O87     O    0.76856   0.81804   0.70844   1.000
    O88     O    0.33650   0.92414   0.71931   1.000
    O89     O    0.83650   0.92414   0.71931   1.000
    O90     O    0.78167   0.89219   0.73440   1.000
    O91     O    0.28167   0.89219   0.73440   1.000
    O92     O    0.03174   0.39218   0.76557   1.000
    O93     O    0.08656   0.42413   0.78067   1.000
    O94     O    0.53174   0.39218   0.76557   1.000
    O95     O    0.58657   0.42413   0.78067   1.000
    O96     O    0.51860   0.31802   0.79151   1.000
    O97     O    0.01860   0.31801   0.79151   1.000
    O98     O    0.49572   0.22491   0.81221   1.000
    O99     O    0.43056   0.17777   0.82540   1.000
    O100    O    0.99572   0.22491   0.81221   1.000
    O101    O    0.93056   0.17777   0.82540   1.000
    O102    O    0.89718   0.20618   0.86183   1.000
    O103    O    0.39717   0.20618   0.86183   1.000
    N104    N    0.39117   0.21468   0.58621   1.000
    O105    O    0.23092   0.23349   0.68593   1.000
    O106    O    0.54267   0.22041   0.47389   1.000
    N107    N    0.14092   0.71481   0.91378   1.000
    O108    O    0.98077   0.73357   0.81404   1.000
    O109    O    0.29251   0.72051   0.02610   1.000
    N110    N    0.96278   0.45430   0.32639   1.000
    O111    O    0.92055   0.40487   0.33233   1.000
    O112    O    0.95541   0.50020   0.29269   1.000
    N113    N    0.53722   0.54572   0.67359   1.000
    O114    O    0.57945   0.59515   0.66763   1.000
    O115    O    0.54459   0.49982   0.70729   1.000
    O116    O    0.37010   0.52202   0.57261   1.000
    N117    N    0.64106   0.71481   0.91378   1.000
    O118    O    0.79258   0.72051   0.02610   1.000
    O119    O    0.48084   0.73357   0.81404   1.000
    N120    N    0.21281   0.95429   0.17358   1.000
    O121    O    0.20545   0.00019   0.20729   1.000
    O122    O    0.17056   0.90487   0.16765   1.000
    N123    N    0.78720   0.04572   0.82638   1.000
    O124    O    0.82945   0.09514   0.83233   1.000
    O125    O    0.79455   0.99982   0.79268   1.000
    O126    O    0.62010   0.02203   0.92736   1.000
    N127    N    0.89117   0.21468   0.58598   1.000
    O128    O    0.04267   0.22041   0.47377   1.000
    O129    O    0.73092   0.23349   0.68581   1.000
    N130    N    0.35895   0.28520   0.08617   1.000
    O131    O    0.51917   0.26644   0.18593   1.000
    O132    O    0.20742   0.27950   0.97385   1.000
    N133    N    0.46278   0.45430   0.32639   1.000
    O134    O    0.45541   0.50020   0.29269   1.000
    O135    O    0.42055   0.40486   0.33233   1.000
    N136    N    0.03722   0.54571   0.67359   1.000
    O137    O    0.07945   0.59515   0.66762   1.000
    O138    O    0.04459   0.49981   0.70729   1.000
    O139    O    0.62990   0.47799   0.42735   1.000
    N140    N    0.71281   0.95429   0.17359   1.000
    O141    O    0.70545   0.00019   0.20729   1.000
    O142    O    0.67056   0.90487   0.16765   1.000
    N143    N    0.28720   0.04572   0.82630   1.000
    O144    O    0.29455   0.99982   0.79264   1.000
    O145    O    0.32945   0.09514   0.83228   1.000
    O146    O    0.87991   0.97799   0.07261   1.000
    N147    N    0.85895   0.28520   0.08616   1.000
    O148    O    0.01917   0.26644   0.18592   1.000
    O149    O    0.70742   0.27950   0.97384   1.000
    N150    N    0.10884   0.78534   0.41375   1.000
    O151    O    0.95734   0.77961   0.52608   1.000
    O152    O    0.26908   0.76653   0.31401   1.000
    N153    N    0.60884   0.78534   0.41375   1.000
    O154    O    0.76909   0.76653   0.31401   1.000
    O155    O    0.45734   0.77961   0.52608   1.000
loop_
    _geom_bond_atom_site_label_1
    _geom_bond_atom_site_label_2
    _geom_bond_distance
    _geom_bond_site_symmetry_2
    _ccdc_geom_bond_type
    Zr43   O56       0.62257      .   S
    Zr17   O56       0.62257      .   S
    Zr42   O57       0.62259      .   S
    Zr16   O57       0.62259      .   S
    Zr17   O58       0.65402      .   S
    Zr41   O58       0.65402      .   S
    Zr16   O59       0.65402      .   S
    Zr40   O59       0.65402      .   S
    Zr4    O60       0.99501      .   S
    Zr41   O60       0.99501      .   S
    Zr4    O61       0.98302      .   S
    Zr38   O61       0.98302      .   S
    Zr5    O62       0.99494  1_655   S
    Zr40   O62       0.99494      .   S
    Zr5    O63       0.98302      .   S
    Zr39   O63       0.98302      .   S
    Zr37   O64       0.62671      .   S
    Zr15   O64       0.62671      .   S
    Zr36   O65       0.62642      .   S
    Zr14   O65       0.62642      .   S
    Zr38   O66       0.65090      .   S
    Zr14   O66       0.65090      .   S
    Zr39   O67       0.65089      .   S
    Zr15   O67       0.65089      .   S
    Zr18   O68       0.65087      .   S
    Zr46   O68       0.65087      .   S
    Zr18   O69       0.62641      .   S
    Zr44   O69       0.62641      .   S
    Zr19   O70       0.65087      .   S
    Zr47   O70       0.65087      .   S
    Zr19   O71       0.62639      .   S
    Zr45   O71       0.62639      .   S
    Zr46   O72       0.98305      .   S
    Zr2    O72       0.98305      .   S
    Zr47   O73       0.98305      .   S
    Zr3    O73       0.98305      .   S
    Zr33   O74       0.99494      .   S
    Zr3    O74       0.99494      .   S
    Zr33   O75       0.65398      .   S
    Zr13   O75       0.65398      .   S
    Zr32   O76       0.99493      .   S
    Zr2    O76       0.99493      .   S
    Zr32   O77       0.65400      .   S
    Zr12   O77       0.65400      .   S
    Zr13   O78       0.62259      .   S
    Zr35   O78       0.62259      .   S
    Zr12   O79       0.62257      .   S
    Zr34   O79       0.62257      .   S
    Zr51   O80       0.62250      .   S
    Zr21   O80       0.62250      .   S
    Zr50   O81       0.62212      .   S
    Zr20   O81       0.62212      .   S
    Zr20   O82       0.65443      .   S
    Zr48   O82       0.65443      .   S
    Zr21   O83       0.65443      .   S
    Zr49   O83       0.65443      .   S
    Zr6    O84       0.99498      .   S
    Zr48   O84       0.99498      .   S
    Zr6    O85       0.98305      .   S
    Zr30   O85       0.98305      .   S
    Zr7    O86       0.99496      .   S
    Zr49   O86       0.99496      .   S
    Zr7    O87       0.98305      .   S
    Zr31   O87       0.98305      .   S
    Zr28   O88       0.62641      .   S
    Zr10   O88       0.62641      .   S
    Zr29   O89       0.62643      .   S
    Zr11   O89       0.62643      .   S
    Zr31   O90       0.65087      .   S
    Zr11   O90       0.65087      .   S
    Zr30   O91       0.65086      .   S
    Zr10   O91       0.65086      .   S
    Zr22   O92       0.65089      .   S
    Zr54   O92       0.65089      .   S
    Zr22   O93       0.62641      .   S
    Zr52   O93       0.62641      .   S
    Zr23   O94       0.65089      .   S
    Zr55   O94       0.65089      .   S
    Zr23   O95       0.62639      .   S
    Zr53   O95       0.62639      .   S
    Zr55   O96       0.98272      .   S
    Zr1    O96       0.98272      .   S
    Zr54   O97       0.98271      .   S
    Zr0    O97       0.98271      .   S
    Zr24   O98       0.99499      .   S
    Zr1    O98       0.99499      .   S
    Zr24   O99       0.65403      .   S
    Zr8    O99       0.65403      .   S
    Zr25   O100      0.99492      .   S
    Zr0    O100      0.99492  1_455   S
    Zr25   O101      0.65403      .   S
    Zr9    O101      0.65403      .   S
    Zr9    O102      0.62257      .   S
    Zr27   O102      0.62257      .   S
    Zr8    O103      0.62257      .   S
    Zr26   O103      0.62257      .   S
    N104   O105      3.66451      .   S
    Zr0    O105      4.69996      .   S
    N104   O106      3.62010      .   S
    Zr3    O106      4.56985      .   S
    N107   O108      3.66249  1_455   S
    Zr7    O108      4.69762      .   S
    N107   O109      3.62090  1_556   S
    Zr4    O109      4.57081      .   S
    N110   O111      1.08040      .   S
    Zr13   O111      1.83528      .   S
    N110   O112      1.07362      .   S
    Zr15   O112      1.82698      .   S
    N113   O114      1.08050      .   S
    Zr21   O114      1.83547      .   S
    N113   O115      1.07365      .   S
    Zr23   O115      1.82702      .   S
    N110   O116      9.02009  1_655   S
    N113   O116      3.70077      .   S
    N117   O118      3.61990  1_556   S
    Zr5    O118      4.56994      .   S
    N117   O119      3.66360      .   S
    Zr6    O119      4.69873      .   S
    N120   O121      1.07359  1_565   S
    Zr18   O121      1.82692      .   S
    N120   O122      1.08046      .   S
    Zr16   O122      1.83537      .   S
    N123   O124      1.08050      .   S
    Zr9    O124      1.83542      .   S
    N123   O125      1.07352  1_545   S
    Zr11   O125      1.82685      .   S
    N120   O126      9.02095  1_564   S
    N123   O126      3.70100      .   S
    N127   O128      3.61859  1_655   S
    Zr2    O128      4.56814      .   S
    N127   O129      3.66578      .   S
    Zr1    O129      4.70122      .   S
    N130   O131      3.66376      .   S
    Zr3    O131      4.69902      .   S
    N130   O132      3.61991  1_554   S
    Zr0    O132      4.57027      .   S
    N133   O134      1.07364      .   S
    Zr14   O134      1.82701      .   S
    N133   O135      1.08044      .   S
    Zr12   O135      1.83530      .   S
    N136   O137      1.08047      .   S
    Zr20   O137      1.83545      .   S
    N136   O138      1.07364      .   S
    Zr22   O138      1.82699      .   S
    N136   O139      9.02027  1_455   S
    N133   O139      3.70057      .   S
    N140   O141      1.07355  1_565   S
    Zr19   O141      1.82688      .   S
    N140   O142      1.08045      .   S
    Zr17   O142      1.83537      .   S
    N143   O144      1.07295  1_545   S
    Zr10   O144      1.82629      .   S
    N143   O145      1.08059      .   S
    Zr8    O145      1.83551      .   S
    N143   O146      9.02200  1_446   S
    N140   O146      3.70099      .   S
    N147   O148      3.66382  1_655   S
    Zr2    O148      4.69906      .   S
    N147   O149      3.61979  1_554   S
    Zr1    O149      4.57009      .   S
    N150   O151      3.62015  1_455   S
    Zr7    O151      4.56984      .   S
    N150   O152      3.66467      .   S
    Zr4    O152      4.70033      .   S
    N153   O154      3.66485      .   S
    Zr5    O154      4.70030      .   S
    N153   O155      3.62014      .   S
    Zr6    O155      4.56983      .   S
