# CIF file generated by openbabel 2.4.90, see http://openbabel.sf.net
data_I
_chemical_name_common ''
_cell_length_a 18.425
_cell_length_b 18.432
_cell_length_c 18.433
_cell_angle_alpha 60.135
_cell_angle_beta 60.158
_cell_angle_gamma 60.157
_space_group_name_H-M_alt 'P 1'
_space_group_name_Hall 'P 1'
loop_
    _symmetry_equiv_pos_as_xyz
    x,y,z
loop_
    _atom_site_label
    _atom_site_type_symbol
    _atom_site_fract_x
    _atom_site_fract_y
    _atom_site_fract_z
    _atom_site_occupancy
    N0      N    0.50001   0.50000   0.99995   1.000
    N1      N    0.00001   0.50000   0.49999   1.000
    N2      N    0.50001   0.00000   0.99999   1.000
    N3      N    0.00001   0.00000   0.49996   1.000
    N4      N    0.00001   0.50000   0.99998   1.000
    N5      N    0.50001   0.00000   0.49997   1.000
    Zr6     Zr   0.75001   0.74996   0.74984   1.000
    Zr7     Zr   0.25001   0.25005   0.25004   1.000
    O8      O    0.83253   0.66740   0.66730   1.000
    O9      O    0.83256   0.83253   0.66731   1.000
    O10     O    0.83256   0.66744   0.83246   1.000
    O11     O    0.66746   0.83248   0.66730   1.000
    O12     O    0.66747   0.83254   0.83247   1.000
    O13     O    0.66746   0.66741   0.83240   1.000
    O14     O    0.16749   0.33261   0.33259   1.000
    O15     O    0.16746   0.16748   0.33254   1.000
    O16     O    0.16746   0.33256   0.16746   1.000
    O17     O    0.33256   0.16752   0.33258   1.000
    O18     O    0.33255   0.16747   0.16745   1.000
    O19     O    0.33256   0.33260   0.16748   1.000
loop_
    _geom_bond_atom_site_label_1
    _geom_bond_atom_site_label_2
    _geom_bond_distance
    _geom_bond_site_symmetry_2
    _ccdc_geom_bond_type
    Zr6    O8        2.15473      .   S
    N1     O8        4.36847  1_455   S
    Zr6    O9        2.15395      .   S
    N3     O9        4.36884  1_445   S
    Zr6    O10       2.15460      .   S
    N4     O10       4.36957  1_455   S
    Zr6    O11       2.15344      .   S
    N5     O11       4.36696  1_545   S
    Zr6    O12       2.15630      .   S
    N2     O12       4.37200  1_545   S
    Zr6    O13       2.15366      .   S
    N0     O13       4.36787      .   S
    Zr7    O14       2.15497      .   S
    N1     O14       4.36951      .   S
    Zr7    O15       2.15395      .   S
    N3     O15       4.36884      .   S
    Zr7    O16       2.15398      .   S
    N4     O16       4.36900  1_556   S
    Zr7    O17       2.15362      .   S
    N5     O17       4.36778      .   S
    Zr7    O18       2.15564      .   S
    N2     O18       4.37133  1_556   S
    Zr7    O19       2.15366      .   S
    N0     O19       4.36787  1_556   S
