# CIF file generated by openbabel 2.4.90, see http://openbabel.sf.net
data_I
_chemical_name_common ''
_cell_length_a 18.425
_cell_length_b 18.432
_cell_length_c 18.433
_cell_angle_alpha 60.135
_cell_angle_beta 60.158
_cell_angle_gamma 60.157
_space_group_name_H-M_alt 'P 1'
_space_group_name_Hall 'P 1'
loop_
    _symmetry_equiv_pos_as_xyz
    x,y,z
loop_
    _atom_site_label
    _atom_site_type_symbol
    _atom_site_fract_x
    _atom_site_fract_y
    _atom_site_fract_z
    _atom_site_occupancy
    N0      N    0.50001   0.50000   0.99995   1.000
    N1      N    0.00001   0.50000   0.49999   1.000
    N2      N    0.50001   0.00000   0.99999   1.000
    N3      N    0.00001   0.00000   0.49996   1.000
    N4      N    0.00001   0.50000   0.99998   1.000
    N5      N    0.50001   0.00000   0.49997   1.000
    Zr6     Zr   0.75001   0.74996   0.74984   1.000
    O7      O    0.64888   0.83249   0.68591   1.000
    O8      O    0.64888   0.83251   0.83244   1.000
    O9      O    0.64888   0.68599   0.83240   1.000
    O10     O    0.83254   0.64884   0.83241   1.000
    O11     O    0.83253   0.64883   0.68590   1.000
    O12     O    0.68603   0.64883   0.83240   1.000
    O13     O    0.83254   0.83249   0.64866   1.000
    O14     O    0.68603   0.83248   0.64869   1.000
    O15     O    0.83253   0.68597   0.64870   1.000
    O16     O    0.83258   0.83257   0.68597   1.000
    O17     O    0.83258   0.68604   0.83250   1.000
    O18     O    0.68606   0.83257   0.83250   1.000
    Zr19    Zr   0.25001   0.25005   0.25004   1.000
    O20     O    0.16748   0.35116   0.16750   1.000
    O21     O    0.31399   0.35118   0.16751   1.000
    O22     O    0.16749   0.35118   0.31402   1.000
    O23     O    0.16748   0.16752   0.35114   1.000
    O24     O    0.31399   0.16753   0.35116   1.000
    O25     O    0.16749   0.31404   0.35116   1.000
    O26     O    0.16744   0.16743   0.31394   1.000
    O27     O    0.16744   0.31396   0.16742   1.000
    O28     O    0.31396   0.16743   0.16742   1.000
    O29     O    0.35114   0.31402   0.16746   1.000
    O30     O    0.35114   0.16752   0.31400   1.000
    O31     O    0.35114   0.16750   0.16749   1.000
loop_
    _geom_bond_atom_site_label_1
    _geom_bond_atom_site_label_2
    _geom_bond_distance
    _geom_bond_site_symmetry_2
    _ccdc_geom_bond_type
    Zr6    O7        2.18020      .   S
    N5     O7        4.38085  1_545   S
    Zr6    O8        2.18344      .   S
    N2     O8        4.38529  1_545   S
    Zr6    O9        2.18075      .   S
    N0     O9        4.38138      .   S
    Zr6    O10       2.18184      .   S
    N4     O10       4.38285  1_455   S
    Zr6    O11       2.18153      .   S
    N1     O11       4.38228  1_455   S
    Zr6    O12       2.18091      .   S
    N0     O12       4.38128      .   S
    Zr6    O13       2.18149      .   S
    N3     O13       4.38227  1_445   S
    Zr6    O14       2.18112      .   S
    N5     O14       4.38004  1_545   S
    Zr6    O15       2.18227      .   S
    N1     O15       4.38159  1_455   S
    Zr6    O16       2.18114      .   S
    N3     O16       4.38252  1_445   S
    Zr6    O17       2.18175      .   S
    N4     O17       4.38324  1_455   S
    Zr6    O18       2.18343      .   S
    N2     O18       4.38562  1_545   S
    Zr19   O20       2.18131      .   S
    N4     O20       4.38224  1_556   S
    Zr19   O21       2.18091      .   S
    N0     O21       4.38128  1_556   S
    Zr19   O22       2.18209      .   S
    N1     O22       4.38296      .   S
    Zr19   O23       2.18127      .   S
    N3     O23       4.38209      .   S
    Zr19   O24       2.18087      .   S
    N5     O24       4.38119      .   S
    Zr19   O25       2.18210      .   S
    N1     O25       4.38294      .   S
    Zr19   O26       2.18104      .   S
    N3     O26       4.38255      .   S
    Zr19   O27       2.18106      .   S
    N4     O27       4.38271  1_556   S
    Zr19   O28       2.18271      .   S
    N2     O28       4.38498  1_556   S
    Zr19   O29       2.18075      .   S
    N0     O29       4.38138  1_556   S
    Zr19   O30       2.18070      .   S
    N5     O30       4.38130      .   S
    Zr19   O31       2.18286      .   S
    N2     O31       4.38458  1_556   S
