# CIF file generated by openbabel 2.4.90, see http://openbabel.sf.net
data_I
_chemical_name_common ''
_cell_length_a 22.218
_cell_length_b 14.321
_cell_length_c 18.373
_cell_angle_alpha 74.409
_cell_angle_beta 72.493
_cell_angle_gamma 67.103
_space_group_name_H-M_alt 'P 1'
_space_group_name_Hall 'P 1'
loop_
    _symmetry_equiv_pos_as_xyz
    x,y,z
loop_
    _atom_site_label
    _atom_site_type_symbol
    _atom_site_fract_x
    _atom_site_fract_y
    _atom_site_fract_z
    _atom_site_occupancy
    Lv0     Lv   0.08843   0.24986   0.74981   1.000
    Lv1     Lv   0.00000   0.99969   0.99993   1.000
    Lv2     Lv   0.91157   0.75017   0.25016   1.000
    Lv3     Lv   0.58844   0.24986   0.74981   1.000
    Lv4     Lv   0.41156   0.75017   0.25014   1.000
    Lv5     Lv   0.50000   0.99969   0.99993   1.000
    Lv6     Lv   0.00000   0.50001   0.49976   1.000
    Lv7     Lv   0.50000   0.50001   0.49998   1.000
