# CIF file generated by openbabel 2.4.90, see http://openbabel.sf.net
data_I
_chemical_name_common ''
_cell_length_a 22.218
_cell_length_b 14.321
_cell_length_c 18.373
_cell_angle_alpha 74.409
_cell_angle_beta 72.493
_cell_angle_gamma 67.103
_space_group_name_H-M_alt 'P 1'
_space_group_name_Hall 'P 1'
loop_
    _symmetry_equiv_pos_as_xyz
    x,y,z
loop_
    _atom_site_label
    _atom_site_type_symbol
    _atom_site_fract_x
    _atom_site_fract_y
    _atom_site_fract_z
    _atom_site_occupancy
    Cu0     Cu   0.70464   0.74092   0.60225   1.000
    Cu1     Cu   0.30123   0.74904   0.74098   1.000
    Cu2     Cu   0.80124   0.74903   0.74099   1.000
    Cu3     Cu   0.37664   0.75968   0.89725   1.000
    Cu4     Cu   0.87665   0.75966   0.89726   1.000
    Cu5     Cu   0.04626   0.75148   0.75846   1.000
    Cu6     Cu   0.54626   0.75148   0.75847   1.000
    Cu7     Cu   0.29536   0.25910   0.39772   1.000
    Cu8     Cu   0.79537   0.25909   0.39772   1.000
    Cu9     Cu   0.19875   0.25101   0.25897   1.000
    Cu10    Cu   0.69877   0.25100   0.25898   1.000
    Cu11    Cu   0.12335   0.24036   0.10271   1.000
    Cu12    Cu   0.62336   0.24035   0.10271   1.000
    Cu13    Cu   0.45374   0.24854   0.24150   1.000
    Cu14    Cu   0.95374   0.24854   0.24150   1.000
    Cu15    Cu   0.20463   0.74093   0.60225   1.000
    S16     S    0.02905   0.63425   0.70595   1.000
    S17     S    0.52906   0.63425   0.70595   1.000
    S18     S    0.10756   0.85051   0.66510   1.000
    S19     S    0.60757   0.85050   0.66510   1.000
    S20     S    0.43679   0.85341   0.80371   1.000
    W21     W    0.42742   0.73994   0.74610   1.000
    W22     W    0.92743   0.73992   0.74613   1.000
    W23     W    0.17042   0.76055   0.75336   1.000
    W24     W    0.67043   0.76054   0.75337   1.000
    W25     W    0.07257   0.26011   0.25384   1.000
    W26     W    0.57258   0.26010   0.25384   1.000
    W27     W    0.32957   0.23948   0.24660   1.000
    W28     W    0.82958   0.23948   0.24661   1.000
    S29     S    0.19909   0.86614   0.79359   1.000
    S30     S    0.69910   0.86613   0.79360   1.000
    S31     S    0.36573   0.65009   0.83441   1.000
    S32     S    0.86575   0.65007   0.83442   1.000
    S33     S    0.26536   0.64714   0.69572   1.000
    S34     S    0.76536   0.64713   0.69573   1.000
    S35     S    0.11180   0.67858   0.85011   1.000
    S36     S    0.61180   0.67858   0.85011   1.000
    S37     S    0.93680   0.85340   0.80371   1.000
    S38     S    0.37588   0.82181   0.64932   1.000
    S39     S    0.87588   0.82180   0.64932   1.000
    S40     S    0.30090   0.13390   0.20637   1.000
    S41     S    0.80091   0.13389   0.20637   1.000
    S42     S    0.13425   0.34997   0.16555   1.000
    S43     S    0.63427   0.34995   0.16555   1.000
    S44     S    0.23464   0.35290   0.30425   1.000
    S45     S    0.73464   0.35289   0.30425   1.000
    S46     S    0.38820   0.32145   0.14986   1.000
    S47     S    0.88820   0.32145   0.14986   1.000
    S48     S    0.47094   0.36577   0.29402   1.000
    S49     S    0.97094   0.36578   0.29402   1.000
    S50     S    0.39243   0.14952   0.33486   1.000
    S51     S    0.89244   0.14952   0.33487   1.000
    S52     S    0.06321   0.14663   0.19626   1.000
    S53     S    0.56321   0.14662   0.19626   1.000
    S54     S    0.12412   0.17824   0.35064   1.000
    S55     S    0.62413   0.17823   0.35064   1.000
    Ts56    Ts   0.72039   0.76740   0.57111   1.000
    Ts57    Ts   0.69781   0.70579   0.59007   1.000
    Ts58    Ts   0.39012   0.73314   0.92844   1.000
    Ts59    Ts   0.34611   0.79481   0.90939   1.000
    Ts60    Ts   0.89013   0.73312   0.92845   1.000
    Ts61    Ts   0.84612   0.79478   0.90940   1.000
    Ts62    Ts   0.27961   0.23262   0.42886   1.000
    Ts63    Ts   0.30219   0.29423   0.40990   1.000
    Ts64    Ts   0.77962   0.23262   0.42886   1.000
    Ts65    Ts   0.80220   0.29422   0.40988   1.000
    Ts66    Ts   0.10987   0.26691   0.07152   1.000
    Ts67    Ts   0.15388   0.20524   0.09057   1.000
    Ts68    Ts   0.60988   0.26689   0.07152   1.000
    Ts69    Ts   0.65389   0.20522   0.09057   1.000
    Ts70    Ts   0.22038   0.76741   0.57111   1.000
    Ts71    Ts   0.19781   0.70580   0.59007   1.000
loop_
    _geom_bond_atom_site_label_1
    _geom_bond_atom_site_label_2
    _geom_bond_distance
    _geom_bond_site_symmetry_2
    _ccdc_geom_bond_type
    Cu12   S43       2.30080      .   S
    Cu12   S53       2.30558      .   S
    Cu12   W26       2.71147      .   S
    Cu11   S42       2.30079      .   S
    Cu11   S52       2.30558      .   S
    Cu11   W25       2.71145      .   S
    S46    Cu13      2.32218      .   S
    S46    W27       2.21561      .   S
    S47    Cu14      2.32221      .   S
    S47    W28       2.21569      .   S
    S43    W26       2.25344      .   S
    S43    Cu10      2.36657      .   S
    S42    W25       2.25345      .   S
    S42    Cu9       2.36648      .   S
    S52    Cu14      2.32585  1_455   S
    S52    W25       2.26352      .   S
    S53    Cu13      2.32609      .   S
    S53    W26       2.26353      .   S
    S40    W27       2.20737      .   S
    S40    Cu9       2.34241      .   S
    S41    W28       2.20750      .   S
    S41    Cu10      2.34244      .   S
    Cu14   W28       2.78424      .   S
    Cu14   S49       2.34263      .   S
    Cu14   S51       2.36620      .   S
    Cu13   W27       2.78428      .   S
    Cu13   S48       2.34264      .   S
    Cu13   S50       2.36614      .   S
    W27    S44       2.26356      .   S
    W27    S50       2.25368      .   S
    W27    Cu7       2.71093      .   S
    W28    S45       2.26348      .   S
    W28    S51       2.25370      .   S
    W28    Cu8       2.71076      .   S
    W26    Cu10      2.78460      .   S
    W26    S48       2.20757      .   S
    W26    S55       2.21557      .   S
    W25    Cu9       2.78456      .   S
    W25    S49       2.20732  1_455   S
    W25    S54       2.21560      .   S
    Cu9    S44       2.32664      .   S
    Cu9    S54       2.32247      .   S
    Cu10   S45       2.32654      .   S
    Cu10   S55       2.32241      .   S
    S45    Cu8       2.30605      .   S
    S44    Cu7       2.30604      .   S
    S50    Cu7       2.29988      .   S
    S51    Cu8       2.29981      .   S
    Cu15   S18       2.29985      .   S
    Cu15   S33       2.30599      .   S
    Cu15   W23       2.71077      .   S
    Cu0    S19       2.29986      .   S
    Cu0    S34       2.30610      .   S
    Cu0    W24       2.71095      .   S
    S38    Cu1       2.32241      .   S
    S38    W21       2.21526      .   S
    S39    Cu2       2.32247      .   S
    S39    W22       2.21575      .   S
    S19    W24       2.25378      .   S
    S19    Cu6       2.36620      .   S
    S18    W23       2.25366      .   S
    S18    Cu5       2.36612      .   S
    S33    Cu1       2.32657      .   S
    S33    W23       2.26351      .   S
    S34    Cu2       2.32653      .   S
    S34    W24       2.26351      .   S
    S17    W21       2.20747      .   S
    S17    Cu6       2.34263      .   S
    S16    W22       2.20731  1_455   S
    S16    Cu5       2.34251      .   S
    Cu1    W21       2.78445      .   S
    Cu1    S29       2.34240      .   S
    Cu1    S31       2.36658      .   S
    Cu2    W22       2.78462      .   S
    Cu2    S30       2.34242      .   S
    Cu2    S32       2.36663      .   S
    W21    S20       2.26388      .   S
    W21    S31       2.25359      .   S
    W21    Cu3       2.71179      .   S
    W22    S37       2.26351      .   S
    W22    S32       2.25345      .   S
    W22    Cu4       2.71143      .   S
    W23    Cu5       2.78428      .   S
    W23    S29       2.20744      .   S
    W23    S35       2.21568      .   S
    W24    Cu6       2.78428      .   S
    W24    S30       2.20739      .   S
    W24    S36       2.21561      .   S
    Cu5    S37       2.32588  1_455   S
    Cu5    S35       2.32232      .   S
    Cu6    S20       2.32611      .   S
    Cu6    S36       2.32215      .   S
    S37    Cu4       2.30557      .   S
    S20    Cu3       2.30550      .   S
    S31    Cu3       2.30077      .   S
    S32    Cu4       2.30078      .   S
    Cu0    Ts56      0.67803      .   S
    Cu0    Ts57      0.68296      .   S
    Cu3    Ts58      0.67838      .   S
    Cu3    Ts59      0.68312      .   S
    Cu4    Ts60      0.67835      .   S
    Cu4    Ts61      0.68311      .   S
    Cu7    Ts62      0.67803      .   S
    Cu7    Ts63      0.68296      .   S
    Cu8    Ts64      0.67804      .   S
    Cu8    Ts65      0.68277      .   S
    Cu11   Ts66      0.67837      .   S
    Cu11   Ts67      0.68310      .   S
    Cu12   Ts68      0.67835      .   S
    Cu12   Ts69      0.68311      .   S
    Cu15   Ts70      0.67804      .   S
    Cu15   Ts71      0.68300      .   S
