# CIF file generated by openbabel 2.4.90, see http://openbabel.sf.net
data_I
_chemical_name_common ''
_cell_length_a 22.218
_cell_length_b 14.321
_cell_length_c 18.373
_cell_angle_alpha 74.409
_cell_angle_beta 72.493
_cell_angle_gamma 67.103
_space_group_name_H-M_alt 'P 1'
_space_group_name_Hall 'P 1'
loop_
    _symmetry_equiv_pos_as_xyz
    x,y,z
loop_
    _atom_site_label
    _atom_site_type_symbol
    _atom_site_fract_x
    _atom_site_fract_y
    _atom_site_fract_z
    _atom_site_occupancy
    C0      C    0.20463   0.74093   0.60225   1.000
    C1      C    0.70464   0.74092   0.60225   1.000
    C2      C    0.30123   0.74904   0.74098   1.000
    C3      C    0.80124   0.74903   0.74099   1.000
    C4      C    0.37664   0.75968   0.89725   1.000
    C5      C    0.87665   0.75966   0.89726   1.000
    C6      C    0.04626   0.75148   0.75846   1.000
    C7      C    0.54626   0.75148   0.75847   1.000
    C8      C    0.29536   0.25910   0.39772   1.000
    C9      C    0.79537   0.25909   0.39772   1.000
    C10     C    0.19875   0.25101   0.25897   1.000
    C11     C    0.69877   0.25100   0.25898   1.000
    C12     C    0.12335   0.24036   0.10271   1.000
    C13     C    0.62336   0.24035   0.10271   1.000
    C14     C    0.45374   0.24854   0.24150   1.000
    C15     C    0.95374   0.24854   0.24150   1.000
    C16     C    0.48256   0.76125   0.98558   1.000
    C17     C    0.98258   0.76125   0.98558   1.000
    C18     C    0.37256   0.56001   0.03639   1.000
    C19     C    0.87258   0.55999   0.03640   1.000
    C20     C    0.44855   0.50284   0.14670   1.000
    C21     C    0.94857   0.50284   0.14671   1.000
    C22     C    0.05126   0.55422   0.14317   1.000
    C23     C    0.55126   0.55421   0.14317   1.000
    C24     C    0.05994   0.66797   0.07957   1.000
    C25     C    0.55995   0.66795   0.07957   1.000
    C26     C    0.00002   0.55880   0.27734   1.000
    C27     C    0.50003   0.55880   0.27734   1.000
    C28     C    0.47079   0.84449   0.11480   1.000
    C29     C    0.97081   0.84450   0.11480   1.000
    C30     C    0.23948   0.77810   0.03497   1.000
    C31     C    0.73949   0.77803   0.03497   1.000
    C32     C    0.28921   0.99783   0.84552   1.000
    C33     C    0.78921   0.99782   0.84555   1.000
    C34     C    0.15987   0.08763   0.92844   1.000
    C35     C    0.65987   0.08758   0.92840   1.000
    C36     C    0.12665   0.87585   0.09965   1.000
    C37     C    0.62666   0.87574   0.09965   1.000
    C38     C    0.11332   0.00000   0.09011   1.000
    C39     C    0.61333   0.00000   0.09016   1.000
    C40     C    0.10703   0.87635   0.94036   1.000
    C41     C    0.60702   0.87631   0.94037   1.000
    C42     C    0.49504   0.08231   0.10573   1.000
    C43     C    0.99503   0.08235   0.10572   1.000
    C44     C    0.35532   0.73920   0.51484   1.000
    C45     C    0.85533   0.73921   0.51484   1.000
    C46     C    0.17011   0.94037   0.46272   1.000
    C47     C    0.67012   0.94035   0.46272   1.000
    C48     C    0.27266   0.99752   0.35316   1.000
    C49     C    0.77266   0.99750   0.35310   1.000
    C50     C    0.39923   0.94606   0.35765   1.000
    C51     C    0.89923   0.94607   0.35765   1.000
    C52     C    0.43296   0.83228   0.42146   1.000
    C53     C    0.93296   0.83228   0.42146   1.000
    C54     C    0.41804   0.94147   0.22340   1.000
    C55     C    0.91806   0.94148   0.22340   1.000
    C56     C    0.44966   0.65578   0.38595   1.000
    C57     C    0.94966   0.65579   0.38594   1.000
    C58     C    0.14555   0.72216   0.46421   1.000
    C59     C    0.64556   0.72215   0.46420   1.000
    C60     C    0.21093   0.50303   0.65400   1.000
    C61     C    0.71093   0.50303   0.65409   1.000
    C62     C    0.16808   0.41282   0.57124   1.000
    C63     C    0.66809   0.41281   0.57125   1.000
    C64     C    0.11394   0.62404   0.39973   1.000
    C65     C    0.61396   0.62403   0.39973   1.000
    C66     C    0.16223   0.49167   0.40954   1.000
    C67     C    0.66224   0.49166   0.40954   1.000
    C68     C    0.01541   0.62414   0.55907   1.000
    C69     C    0.51542   0.62414   0.55907   1.000
    C70     C    0.08884   0.41724   0.39438   1.000
    C71     C    0.58885   0.41724   0.39438   1.000
    C72     C    0.01742   0.23878   0.01439   1.000
    C73     C    0.51744   0.23877   0.01439   1.000
    C74     C    0.12741   0.44004   0.96357   1.000
    C75     C    0.62744   0.44002   0.96357   1.000
    C76     C    0.05143   0.49720   0.85327   1.000
    C77     C    0.55145   0.49719   0.85327   1.000
    C78     C    0.44874   0.44582   0.85680   1.000
    C79     C    0.94873   0.44581   0.85681   1.000
    C80     C    0.44005   0.33207   0.92040   1.000
    C81     C    0.94005   0.33206   0.92041   1.000
    C82     C    0.49996   0.44123   0.72263   1.000
    C83     C    0.99997   0.44123   0.72260   1.000
    C84     C    0.02920   0.15553   0.88517   1.000
    C85     C    0.52921   0.15554   0.88517   1.000
    C86     C    0.26051   0.22200   0.96500   1.000
    C87     C    0.76052   0.22194   0.96500   1.000
    C88     C    0.21079   0.00000   0.15441   1.000
    C89     C    0.71079   0.00000   0.15445   1.000
    C90     C    0.34013   0.91245   0.07148   1.000
    C91     C    0.84013   0.91240   0.07150   1.000
    C92     C    0.37335   0.12429   0.90032   1.000
    C93     C    0.87335   0.12419   0.90030   1.000
    C94     C    0.38667   0.99194   0.90980   1.000
    C95     C    0.88668   0.99183   0.90985   1.000
    C96     C    0.39298   0.12372   0.05960   1.000
    C97     C    0.89297   0.12368   0.05961   1.000
    C98     C    0.00497   0.91769   0.89425   1.000
    C99     C    0.50497   0.91772   0.89424   1.000
    C100    C    0.14467   0.26082   0.48513   1.000
    C101    C    0.64468   0.26082   0.48513   1.000
    C102    C    0.32988   0.05967   0.53725   1.000
    C103    C    0.82989   0.05965   0.53725   1.000
    C104    C    0.22734   0.00252   0.64682   1.000
    C105    C    0.72734   0.00251   0.64681   1.000
    C106    C    0.10077   0.05396   0.64232   1.000
    C107    C    0.60077   0.05397   0.64232   1.000
    C108    C    0.06704   0.16775   0.57851   1.000
    C109    C    0.56705   0.16775   0.57851   1.000
    C110    C    0.08195   0.05855   0.77657   1.000
    C111    C    0.58196   0.05855   0.77657   1.000
    C112    C    0.05033   0.34425   0.61403   1.000
    C113    C    0.55034   0.34425   0.61403   1.000
    C114    C    0.35444   0.27787   0.53576   1.000
    C115    C    0.85445   0.27786   0.53576   1.000
    C116    C    0.28907   0.49699   0.34588   1.000
    C117    C    0.78907   0.49699   0.34588   1.000
    C118    C    0.33191   0.58721   0.42872   1.000
    C119    C    0.83192   0.58721   0.42872   1.000
    C120    C    0.38604   0.37600   0.60024   1.000
    C121    C    0.88605   0.37599   0.60024   1.000
    C122    C    0.33775   0.50838   0.59042   1.000
    C123    C    0.83776   0.50836   0.59043   1.000
    C124    C    0.48458   0.37590   0.44090   1.000
    C125    C    0.98459   0.37589   0.44090   1.000
    C126    C    0.41115   0.58279   0.60559   1.000
    C127    C    0.91116   0.58279   0.60559   1.000
    C128    C    0.42742   0.73994   0.74610   1.000
    C129    C    0.92743   0.73992   0.74613   1.000
    C130    C    0.17042   0.76055   0.75336   1.000
    C131    C    0.67043   0.76054   0.75337   1.000
    C132    C    0.07257   0.26011   0.25384   1.000
    C133    C    0.57258   0.26010   0.25384   1.000
    C134    C    0.32957   0.23948   0.24660   1.000
    C135    C    0.82958   0.23948   0.24661   1.000
    C136    C    0.46095   0.70120   0.01431   1.000
    C137    C    0.96096   0.70120   0.01431   1.000
    C138    C    0.40560   0.59509   0.04270   1.000
    C139    C    0.90562   0.59508   0.04273   1.000
    C140    C    0.44287   0.56550   0.09772   1.000
    C141    C    0.94289   0.56549   0.09773   1.000
    C142    C    0.02359   0.63464   0.12196   1.000
    C143    C    0.52359   0.63463   0.12196   1.000
    C144    C    0.48909   0.69452   0.18832   1.000
    C145    C    0.98911   0.69452   0.18831   1.000
    C146    C    0.48211   0.64280   0.26526   1.000
    C147    C    0.98212   0.64280   0.26526   1.000
    C148    C    0.46541   0.80243   0.17400   1.000
    C149    C    0.96543   0.80243   0.17419   1.000
    C150    C    0.23666   0.84917   0.99393   1.000
    C151    C    0.73668   0.84912   0.99390   1.000
    C152    C    0.25988   0.96597   0.89783   1.000
    C153    C    0.75989   0.96594   0.89786   1.000
    C154    C    0.19596   0.01102   0.93753   1.000
    C155    C    0.69596   0.01097   0.93757   1.000
    C156    C    0.11967   0.94881   0.05820   1.000
    C157    C    0.61968   0.94872   0.05831   1.000
    C158    C    0.05828   0.97603   0.02675   1.000
    C159    C    0.55829   0.97598   0.02670   1.000
    C160    C    0.06022   0.93008   0.96733   1.000
    C161    C    0.56022   0.93005   0.96734   1.000
    C162    C    0.49759   0.04609   0.05909   1.000
    C163    C    0.99759   0.04611   0.05900   1.000
    C164    C    0.31807   0.79925   0.48585   1.000
    C165    C    0.81807   0.79925   0.48585   1.000
    C166    C    0.22387   0.90532   0.45677   1.000
    C167    C    0.72387   0.90530   0.45677   1.000
    C168    C    0.27384   0.93489   0.40214   1.000
    C169    C    0.77384   0.93488   0.40214   1.000
    C170    C    0.40125   0.86566   0.37878   1.000
    C171    C    0.90126   0.86566   0.37878   1.000
    C172    C    0.43006   0.80576   0.31242   1.000
    C173    C    0.93007   0.80576   0.31242   1.000
    C174    C    0.43603   0.85748   0.23547   1.000
    C175    C    0.93604   0.85748   0.23547   1.000
    C176    C    0.45321   0.69785   0.32654   1.000
    C177    C    0.95322   0.69785   0.32654   1.000
    C178    C    0.15792   0.65120   0.50537   1.000
    C179    C    0.65793   0.65119   0.50538   1.000
    C180    C    0.19174   0.53469   0.60170   1.000
    C181    C    0.69175   0.53469   0.60171   1.000
    C182    C    0.17028   0.48945   0.56204   1.000
    C183    C    0.67028   0.48944   0.56204   1.000
    C184    C    0.12297   0.55121   0.44124   1.000
    C185    C    0.62298   0.55120   0.44124   1.000
    C186    C    0.05955   0.52402   0.47290   1.000
    C187    C    0.55956   0.52401   0.47298   1.000
    C188    C    0.00892   0.57022   0.53233   1.000
    C189    C    0.50893   0.57022   0.53233   1.000
    C190    C    0.05005   0.45366   0.44095   1.000
    C191    C    0.55006   0.45366   0.44095   1.000
    C192    C    0.03903   0.29883   0.98566   1.000
    C193    C    0.53905   0.29882   0.98566   1.000
    C194    C    0.09438   0.40496   0.95724   1.000
    C195    C    0.59440   0.40494   0.95724   1.000
    C196    C    0.05710   0.43454   0.90225   1.000
    C197    C    0.55713   0.43453   0.90225   1.000
    C198    C    0.47641   0.36539   0.87801   1.000
    C199    C    0.97641   0.36539   0.87802   1.000
    C200    C    0.01089   0.30551   0.81166   1.000
    C201    C    0.51090   0.30551   0.81166   1.000
    C202    C    0.01788   0.35723   0.73470   1.000
    C203    C    0.51789   0.35723   0.73471   1.000
    C204    C    0.03457   0.19760   0.82578   1.000
    C205    C    0.53459   0.19760   0.82578   1.000
    C206    C    0.26333   0.15091   0.00602   1.000
    C207    C    0.76334   0.15086   0.00604   1.000
    C208    C    0.24012   0.03408   0.10210   1.000
    C209    C    0.74012   0.03406   0.10213   1.000
    C210    C    0.30404   0.98906   0.06240   1.000
    C211    C    0.80404   0.98901   0.06243   1.000
    C212    C    0.38032   0.05131   0.94166   1.000
    C213    C    0.88033   0.05123   0.94168   1.000
    C214    C    0.44171   0.02405   0.97320   1.000
    C215    C    0.94172   0.02401   0.97322   1.000
    C216    C    0.43978   0.06998   0.03263   1.000
    C217    C    0.93978   0.06996   0.03264   1.000
    C218    C    0.00242   0.95392   0.94088   1.000
    C219    C    0.50242   0.95394   0.94088   1.000
    C220    C    0.18193   0.20078   0.51412   1.000
    C221    C    0.68194   0.20078   0.51412   1.000
    C222    C    0.27613   0.09472   0.54320   1.000
    C223    C    0.77614   0.09471   0.54320   1.000
    C224    C    0.22616   0.06514   0.59783   1.000
    C225    C    0.72617   0.06513   0.59783   1.000
    C226    C    0.09875   0.13437   0.62119   1.000
    C227    C    0.59875   0.13437   0.62119   1.000
    C228    C    0.06993   0.19427   0.68756   1.000
    C229    C    0.56994   0.19427   0.68755   1.000
    C230    C    0.06396   0.14255   0.76450   1.000
    C231    C    0.56397   0.14255   0.76450   1.000
    C232    C    0.04678   0.30218   0.67343   1.000
    C233    C    0.54679   0.30218   0.67343   1.000
    C234    C    0.34207   0.34883   0.49459   1.000
    C235    C    0.84208   0.34883   0.49460   1.000
    C236    C    0.30825   0.46533   0.39826   1.000
    C237    C    0.80826   0.46533   0.39827   1.000
    C238    C    0.32972   0.51058   0.43793   1.000
    C239    C    0.82972   0.51058   0.43793   1.000
    C240    C    0.37701   0.44883   0.55873   1.000
    C241    C    0.87702   0.44882   0.55873   1.000
    C242    C    0.44044   0.47602   0.52699   1.000
    C243    C    0.94045   0.47601   0.52000   1.000
    C244    C    0.49107   0.42981   0.46764   1.000
    C245    C    0.99108   0.42981   0.46764   1.000
    C246    C    0.44994   0.54637   0.55902   1.000
    C247    C    0.94994   0.54637   0.55902   1.000
    C248    C    0.19909   0.86614   0.79359   1.000
    C249    C    0.69910   0.86613   0.79360   1.000
    C250    C    0.36573   0.65009   0.83441   1.000
    C251    C    0.86575   0.65007   0.83442   1.000
    C252    C    0.26536   0.64714   0.69572   1.000
    C253    C    0.76536   0.64713   0.69573   1.000
    C254    C    0.11180   0.67858   0.85011   1.000
    C255    C    0.61180   0.67858   0.85011   1.000
    C256    C    0.02905   0.63425   0.70595   1.000
    C257    C    0.52906   0.63425   0.70595   1.000
    C258    C    0.10756   0.85051   0.66510   1.000
    C259    C    0.60757   0.85050   0.66510   1.000
    C260    C    0.43679   0.85341   0.80371   1.000
    C261    C    0.93680   0.85340   0.80371   1.000
    C262    C    0.37588   0.82181   0.64932   1.000
    C263    C    0.87588   0.82180   0.64932   1.000
    C264    C    0.30090   0.13390   0.20637   1.000
    C265    C    0.80091   0.13389   0.20637   1.000
    C266    C    0.13425   0.34997   0.16555   1.000
    C267    C    0.63427   0.34995   0.16555   1.000
    C268    C    0.23464   0.35290   0.30425   1.000
    C269    C    0.73464   0.35289   0.30425   1.000
    C270    C    0.38820   0.32145   0.14986   1.000
    C271    C    0.88820   0.32145   0.14986   1.000
    C272    C    0.47094   0.36577   0.29402   1.000
    C273    C    0.97094   0.36578   0.29402   1.000
    C274    C    0.39243   0.14952   0.33486   1.000
    C275    C    0.89244   0.14952   0.33487   1.000
    C276    C    0.06321   0.14663   0.19626   1.000
    C277    C    0.56321   0.14662   0.19626   1.000
    C278    C    0.12412   0.17824   0.35064   1.000
    C279    C    0.62413   0.17823   0.35064   1.000
    C280    C    0.41707   0.68005   0.99083   1.000
    C281    C    0.91709   0.68004   0.99083   1.000
    C282    C    0.47782   0.63350   0.07895   1.000
    C283    C    0.97784   0.63350   0.07890   1.000
    C284    C    0.28505   0.86506   0.93366   1.000
    C285    C    0.78506   0.86502   0.93368   1.000
    C286    C    0.18165   0.93592   0.99849   1.000
    C287    C    0.68166   0.93585   0.99851   1.000
    C288    C    0.25188   0.82037   0.50884   1.000
    C289    C    0.75189   0.82036   0.50884   1.000
    C290    C    0.33341   0.86686   0.42100   1.000
    C291    C    0.83341   0.86686   0.42129   1.000
    C292    C    0.18415   0.63554   0.56571   1.000
    C293    C    0.68416   0.63553   0.56572   1.000
    C294    C    0.14873   0.56435   0.50093   1.000
    C295    C    0.64874   0.56435   0.50094   1.000
    C296    C    0.08291   0.31999   0.00914   1.000
    C297    C    0.58292   0.31998   0.00914   1.000
    C298    C    0.02215   0.36653   0.92103   1.000
    C299    C    0.52217   0.36653   0.92103   1.000
    C300    C    0.21494   0.13500   0.06629   1.000
    C301    C    0.71495   0.13497   0.06630   1.000
    C302    C    0.31834   0.06418   0.00000   1.000
    C303    C    0.81835   0.06412   0.00000   1.000
    C304    C    0.24811   0.17967   0.49113   1.000
    C305    C    0.74812   0.17966   0.49113   1.000
    C306    C    0.16659   0.13317   0.57868   1.000
    C307    C    0.66660   0.13317   0.57868   1.000
    C308    C    0.31584   0.36449   0.43425   1.000
    C309    C    0.81585   0.36448   0.43420   1.000
    C310    C    0.35126   0.43568   0.49903   1.000
    C311    C    0.85127   0.43567   0.49904   1.000
    O312    O    0.79084   0.10749   0.00302   1.000
    O313    O    0.81119   0.02656   0.03122   1.000
    O314    O    0.84934   0.05767   0.97084   1.000
    O315    O    0.29083   0.10755   0.00301   1.000
    O316    O    0.31119   0.02662   0.03120   1.000
    O317    O    0.34933   0.05774   0.97083   1.000
    O318    O    0.23913   0.14296   0.03616   1.000
    O319    O    0.26192   0.18646   0.98551   1.000
    O320    O    0.73914   0.14292   0.03617   1.000
    O321    O    0.76193   0.18640   0.98552   1.000
    O322    O    0.10313   0.28018   0.05593   1.000
    O323    O    0.08864   0.36247   0.98319   1.000
    O324    O    0.06097   0.30941   0.99740   1.000
    O325    O    0.60314   0.28016   0.05593   1.000
    O326    O    0.58866   0.36246   0.98319   1.000
    O327    O    0.56099   0.30940   0.99740   1.000
    O328    O    0.46939   0.66735   0.04663   1.000
    O329    O    0.47175   0.73123   0.99995   1.000
    O330    O    0.43901   0.69063   0.00257   1.000
    O331    O    0.96940   0.66735   0.04661   1.000
    O332    O    0.97177   0.73122   0.99995   1.000
    O333    O    0.93903   0.69062   0.00257   1.000
    O334    O    0.02823   0.26880   0.00003   1.000
    O335    O    0.52824   0.26880   0.00003   1.000
    O336    O    0.58898   0.96235   0.04251   1.000
    O337    O    0.52794   0.01104   0.04290   1.000
    O338    O    0.55925   0.95302   0.99702   1.000
    O339    O    0.08897   0.96242   0.04247   1.000
    O340    O    0.02793   0.01107   0.04288   1.000
    O341    O    0.05925   0.95305   0.99704   1.000
    O342    O    0.46868   0.05803   0.04586   1.000
    O343    O    0.41638   0.09685   0.04612   1.000
    O344    O    0.44075   0.04701   0.00292   1.000
    O345    O    0.96868   0.05804   0.04582   1.000
    O346    O    0.91638   0.09682   0.04613   1.000
    O347    O    0.94075   0.04698   0.00293   1.000
    O348    O    0.73808   0.81357   0.01444   1.000
    O349    O    0.23807   0.81363   0.01445   1.000
    O350    O    0.38908   0.57755   0.03955   1.000
    O351    O    0.88910   0.57753   0.03957   1.000
    O352    O    0.42423   0.58029   0.07021   1.000
    O353    O    0.41134   0.63757   0.01677   1.000
    O354    O    0.92426   0.58028   0.07023   1.000
    O355    O    0.91136   0.63755   0.01678   1.000
    O356    O    0.11649   0.97440   0.07415   1.000
    O357    O    0.12316   0.91233   0.07893   1.000
    O358    O    0.15066   0.94236   0.02835   1.000
    O359    O    0.61651   0.97436   0.07424   1.000
    O360    O    0.62317   0.91223   0.07898   1.000
    O361    O    0.65067   0.94229   0.02841   1.000
    O362    O    0.99631   0.06423   0.08236   1.000
    O363    O    0.49631   0.06420   0.08241   1.000
    O364    O    0.32209   0.95075   0.06694   1.000
    O365    O    0.27208   0.01157   0.08225   1.000
    O366    O    0.82209   0.95071   0.06697   1.000
    O367    O    0.77208   0.01153   0.08228   1.000
    O368    O    0.22753   0.08454   0.08420   1.000
    O369    O    0.16915   0.18768   0.08450   1.000
    O370    O    0.72753   0.08451   0.08422   1.000
    O371    O    0.66916   0.18766   0.08451   1.000
    O372    O    0.96037   0.59949   0.08832   1.000
    O373    O    0.00072   0.63407   0.10043   1.000
    O374    O    0.46035   0.59950   0.08834   1.000
    O375    O    0.50071   0.63406   0.10046   1.000
    O376    O    0.04176   0.65130   0.10077   1.000
    O377    O    0.54177   0.65129   0.10077   1.000
    O378    O    0.44571   0.53417   0.12221   1.000
    O379    O    0.94573   0.53416   0.12222   1.000
    O380    O    0.22545   0.01704   0.12826   1.000
    O381    O    0.72546   0.01703   0.12829   1.000
    O382    O    0.62881   0.29515   0.13413   1.000
    O383    O    0.59329   0.19348   0.14949   1.000
    O384    O    0.59797   0.25022   0.17828   1.000
    O385    O    0.12880   0.29516   0.13413   1.000
    O386    O    0.09328   0.19349   0.14949   1.000
    O387    O    0.09796   0.25024   0.17828   1.000
    O388    O    0.96812   0.82346   0.14450   1.000
    O389    O    0.46810   0.82346   0.14440   1.000
    O390    O    0.53742   0.59442   0.13256   1.000
    O391    O    0.50634   0.66457   0.15514   1.000
    O392    O    0.03743   0.59443   0.13256   1.000
    O393    O    0.00635   0.66458   0.15513   1.000
    O394    O    0.42097   0.28500   0.19568   1.000
    O395    O    0.35888   0.28047   0.19823   1.000
    O396    O    0.92097   0.28500   0.19568   1.000
    O397    O    0.85889   0.28047   0.19824   1.000
    O398    O    0.60342   0.30502   0.20970   1.000
    O399    O    0.66652   0.30047   0.21227   1.000
    O400    O    0.10341   0.30504   0.20970   1.000
    O401    O    0.16650   0.30049   0.21226   1.000
    O402    O    0.47725   0.74847   0.18116   1.000
    O403    O    0.45072   0.82995   0.20474   1.000
    O404    O    0.97727   0.74848   0.18125   1.000
    O405    O    0.95074   0.82996   0.20483   1.000
    O406    O    0.98561   0.66866   0.22679   1.000
    O407    O    0.48560   0.66866   0.22679   1.000
    O408    O    0.00847   0.19759   0.21888   1.000
    O409    O    0.06789   0.20337   0.22505   1.000
    O410    O    0.50847   0.19758   0.21888   1.000
    O411    O    0.56790   0.20336   0.22505   1.000
    O412    O    0.31523   0.18669   0.22649   1.000
    O413    O    0.24982   0.19246   0.23267   1.000
    O414    O    0.81524   0.18668   0.22649   1.000
    O415    O    0.74984   0.19244   0.23268   1.000
    O416    O    0.42704   0.89947   0.22944   1.000
    O417    O    0.92705   0.89948   0.22944   1.000
    O418    O    0.93305   0.83162   0.27395   1.000
    O419    O    0.43304   0.83162   0.27395   1.000
    O420    O    0.89166   0.24401   0.24405   1.000
    O421    O    0.96234   0.30716   0.26776   1.000
    O422    O    0.92309   0.19903   0.28818   1.000
    O423    O    0.39165   0.24401   0.24405   1.000
    O424    O    0.46234   0.30716   0.26776   1.000
    O425    O    0.42308   0.19903   0.28818   1.000
    O426    O    0.28211   0.29619   0.27543   1.000
    O427    O    0.36100   0.19450   0.29073   1.000
    O428    O    0.31247   0.24929   0.32216   1.000
    O429    O    0.78211   0.29618   0.27543   1.000
    O430    O    0.86101   0.19450   0.29074   1.000
    O431    O    0.81248   0.24929   0.32217   1.000
    O432    O    0.63567   0.25555   0.25641   1.000
    O433    O    0.52176   0.31293   0.27393   1.000
    O434    O    0.59835   0.21916   0.30224   1.000
    O435    O    0.13566   0.25556   0.25640   1.000
    O436    O    0.02176   0.31294   0.27393   1.000
    O437    O    0.09834   0.21917   0.30224   1.000
    O438    O    0.21670   0.30196   0.28161   1.000
    O439    O    0.16144   0.21463   0.30481   1.000
    O440    O    0.71671   0.30194   0.28162   1.000
    O441    O    0.66145   0.21461   0.30481   1.000
    O442    O    0.49107   0.60080   0.27130   1.000
    O443    O    0.46766   0.67032   0.29590   1.000
    O444    O    0.99107   0.60080   0.27130   1.000
    O445    O    0.96767   0.67033   0.29590   1.000
    O446    O    0.76501   0.30599   0.35099   1.000
    O447    O    0.26500   0.30600   0.35099   1.000
    O448    O    0.94164   0.75181   0.31948   1.000
    O449    O    0.91566   0.83571   0.34560   1.000
    O450    O    0.44164   0.75180   0.31948   1.000
    O451    O    0.41566   0.83571   0.34560   1.000
    O452    O    0.95144   0.67682   0.35624   1.000
    O453    O    0.45144   0.67681   0.35625   1.000
    O454    O    0.34390   0.20431   0.36629   1.000
    O455    O    0.84391   0.20431   0.36630   1.000
    O456    O    0.79867   0.48116   0.37208   1.000
    O457    O    0.29866   0.48116   0.37207   1.000
    O458    O    0.77325   0.96619   0.37762   1.000
    O459    O    0.27325   0.96620   0.37765   1.000
    O460    O    0.40024   0.90586   0.36822   1.000
    O461    O    0.90024   0.90586   0.36822   1.000
    O462    O    0.36733   0.86626   0.39989   1.000
    O463    O    0.41710   0.84897   0.40012   1.000
    O464    O    0.86733   0.86626   0.40004   1.000
    O465    O    0.91711   0.84897   0.40012   1.000
    O466    O    0.06945   0.43545   0.41767   1.000
    O467    O    0.56945   0.43545   0.41767   1.000
    O468    O    0.80561   0.31179   0.41596   1.000
    O469    O    0.77175   0.21938   0.44443   1.000
    O470    O    0.30560   0.31179   0.41599   1.000
    O471    O    0.27174   0.21938   0.44443   1.000
    O472    O    0.31205   0.41491   0.41626   1.000
    O473    O    0.31898   0.48796   0.41810   1.000
    O474    O    0.81206   0.41491   0.41624   1.000
    O475    O    0.81899   0.48795   0.41810   1.000
    O476    O    0.61847   0.58762   0.42049   1.000
    O477    O    0.11846   0.58763   0.42049   1.000
    O478    O    0.30362   0.90088   0.41157   1.000
    O479    O    0.24885   0.92010   0.42946   1.000
    O480    O    0.80363   0.90087   0.41172   1.000
    O481    O    0.74886   0.92009   0.42946   1.000
    O482    O    0.64261   0.52143   0.42539   1.000
    O483    O    0.14260   0.52144   0.42539   1.000
    O484    O    0.32574   0.83305   0.45343   1.000
    O485    O    0.82574   0.83305   0.45357   1.000
    O486    O    0.33081   0.54890   0.43333   1.000
    O487    O    0.83082   0.54889   0.43333   1.000
    O488    O    0.82897   0.35666   0.46440   1.000
    O489    O    0.32896   0.35666   0.46442   1.000
    O490    O    0.34049   0.47313   0.46848   1.000
    O491    O    0.84050   0.47313   0.46848   1.000
    O492    O    0.98783   0.40285   0.45427   1.000
    O493    O    0.48782   0.40285   0.45427   1.000
    O494    O    0.02056   0.44174   0.45430   1.000
    O495    O    0.05480   0.48884   0.45693   1.000
    O496    O    0.52056   0.44174   0.45430   1.000
    O497    O    0.55481   0.48884   0.45697   1.000
    O498    O    0.09126   0.53761   0.45707   1.000
    O499    O    0.13585   0.55778   0.47109   1.000
    O500    O    0.59127   0.53761   0.45711   1.000
    O501    O    0.63586   0.55777   0.47109   1.000
    O502    O    0.19699   0.92284   0.45975   1.000
    O503    O    0.23787   0.86284   0.48280   1.000
    O504    O    0.69700   0.92283   0.45975   1.000
    O505    O    0.73788   0.86283   0.48280   1.000
    O506    O    0.65174   0.68667   0.48479   1.000
    O507    O    0.15173   0.68668   0.48479   1.000
    O508    O    0.46575   0.45291   0.49732   1.000
    O509    O    0.96576   0.45291   0.49382   1.000
    O510    O    0.03423   0.54712   0.50262   1.000
    O511    O    0.53424   0.54712   0.50266   1.000
    O512    O    0.66331   0.23080   0.49963   1.000
    O513    O    0.16330   0.23080   0.49963   1.000
    O514    O    0.28498   0.80981   0.49735   1.000
    O515    O    0.33670   0.76923   0.50034   1.000
    O516    O    0.78498   0.80980   0.49735   1.000
    O517    O    0.83670   0.76923   0.50034   1.000
    O518    O    0.21502   0.19022   0.50263   1.000
    O519    O    0.26212   0.13719   0.51717   1.000
    O520    O    0.71503   0.19022   0.50263   1.000
    O521    O    0.76213   0.13718   0.51717   1.000
    O522    O    0.34667   0.39226   0.49681   1.000
    O523    O    0.34826   0.31335   0.51518   1.000
    O524    O    0.84668   0.39225   0.49682   1.000
    O525    O    0.84827   0.31335   0.51518   1.000
    O526    O    0.36414   0.44226   0.52888   1.000
    O527    O    0.86415   0.44225   0.52889   1.000
    O528    O    0.15333   0.60778   0.50315   1.000
    O529    O    0.15950   0.52690   0.53148   1.000
    O530    O    0.65334   0.60777   0.50316   1.000
    O531    O    0.65951   0.52689   0.53149   1.000
    O532    O    0.17104   0.64337   0.53554   1.000
    O533    O    0.67104   0.64336   0.53555   1.000
    O534    O    0.72827   0.78064   0.55554   1.000
    O535    O    0.22826   0.78065   0.55554   1.000
    O536    O    0.67427   0.16697   0.54640   1.000
    O537    O    0.17426   0.16698   0.54640   1.000
    O538    O    0.90874   0.46242   0.53936   1.000
    O539    O    0.94520   0.51119   0.53951   1.000
    O540    O    0.40873   0.46242   0.54286   1.000
    O541    O    0.44519   0.51119   0.54301   1.000
    O542    O    0.97943   0.55829   0.54568   1.000
    O543    O    0.01216   0.59718   0.54570   1.000
    O544    O    0.47943   0.55829   0.54568   1.000
    O545    O    0.51217   0.59718   0.54570   1.000
    O546    O    0.30301   0.07720   0.54023   1.000
    O547    O    0.80301   0.07718   0.54023   1.000
    O548    O    0.25115   0.07993   0.57052   1.000
    O549    O    0.75115   0.07992   0.57052   1.000
    O550    O    0.35738   0.47860   0.57457   1.000
    O551    O    0.38153   0.41242   0.57949   1.000
    O552    O    0.85739   0.47859   0.57458   1.000
    O553    O    0.88154   0.41241   0.57949   1.000
    O554    O    0.43054   0.56458   0.58230   1.000
    O555    O    0.93055   0.56458   0.58230   1.000
    O556    O    0.66919   0.45113   0.56665   1.000
    O557    O    0.68102   0.51206   0.58188   1.000
    O558    O    0.16918   0.45113   0.56664   1.000
    O559    O    0.18101   0.51207   0.58187   1.000
    O560    O    0.18795   0.58512   0.58371   1.000
    O561    O    0.19439   0.68823   0.58398   1.000
    O562    O    0.68795   0.58511   0.58372   1.000
    O563    O    0.69440   0.68823   0.58399   1.000
    O564    O    0.58290   0.15106   0.59985   1.000
    O565    O    0.08289   0.15106   0.59985   1.000
    O566    O    0.69638   0.09915   0.58826   1.000
    O567    O    0.63267   0.13377   0.59994   1.000
    O568    O    0.19638   0.09916   0.58826   1.000
    O569    O    0.13267   0.13377   0.59994   1.000
    O570    O    0.72676   0.03382   0.62232   1.000
    O571    O    0.22675   0.03383   0.62233   1.000
    O572    O    0.20133   0.51886   0.62785   1.000
    O573    O    0.70134   0.51886   0.62790   1.000
    O574    O    0.15610   0.79572   0.63368   1.000
    O575    O    0.23499   0.69403   0.64899   1.000
    O576    O    0.18752   0.75074   0.67781   1.000
    O577    O    0.65611   0.79571   0.63368   1.000
    O578    O    0.73500   0.69403   0.64899   1.000
    O579    O    0.68753   0.75073   0.67781   1.000
    O580    O    0.54856   0.32321   0.64373   1.000
    O581    O    0.04856   0.32321   0.64373   1.000
    O582    O    0.09976   0.09417   0.63176   1.000
    O583    O    0.08434   0.16432   0.65438   1.000
    O584    O    0.59976   0.09417   0.63176   1.000
    O585    O    0.58435   0.16432   0.65437   1.000
    O586    O    0.33855   0.78543   0.69515   1.000
    O587    O    0.40165   0.78087   0.69771   1.000
    O588    O    0.83856   0.78541   0.69516   1.000
    O589    O    0.90166   0.78086   0.69773   1.000
    O590    O    0.63900   0.80552   0.70924   1.000
    O591    O    0.57692   0.80099   0.71179   1.000
    O592    O    0.13899   0.80553   0.70923   1.000
    O593    O    0.07691   0.80099   0.71178   1.000
    O594    O    0.55836   0.24822   0.68049   1.000
    O595    O    0.53234   0.32970   0.70407   1.000
    O596    O    0.05836   0.24822   0.68050   1.000
    O597    O    0.03233   0.32970   0.70407   1.000
    O598    O    0.56696   0.16841   0.72603   1.000
    O599    O    0.06695   0.16841   0.72603   1.000
    O600    O    0.28329   0.69809   0.71835   1.000
    O601    O    0.21789   0.70384   0.72454   1.000
    O602    O    0.78330   0.69808   0.71836   1.000
    O603    O    0.71790   0.70384   0.72455   1.000
    O604    O    0.47824   0.68709   0.72603   1.000
    O605    O    0.53766   0.69287   0.73221   1.000
    O606    O    0.97824   0.68709   0.72604   1.000
    O607    O    0.03766   0.69287   0.73221   1.000
    O608    O    0.00892   0.39923   0.72865   1.000
    O609    O    0.50893   0.39923   0.72867   1.000
    O610    O    0.01438   0.33137   0.77318   1.000
    O611    O    0.51440   0.33137   0.77319   1.000
    O612    O    0.36432   0.74449   0.74354   1.000
    O613    O    0.25016   0.80759   0.76728   1.000
    O614    O    0.33348   0.69956   0.78770   1.000
    O615    O    0.86433   0.74447   0.74356   1.000
    O616    O    0.75017   0.80758   0.76730   1.000
    O617    O    0.83349   0.69955   0.78771   1.000
    O618    O    0.43210   0.79667   0.77491   1.000
    O619    O    0.39657   0.69501   0.79026   1.000
    O620    O    0.40203   0.74981   0.82168   1.000
    O621    O    0.93211   0.79666   0.77492   1.000
    O622    O    0.89659   0.69500   0.79028   1.000
    O623    O    0.90204   0.74979   0.82169   1.000
    O624    O    0.10834   0.75602   0.75591   1.000
    O625    O    0.18475   0.81335   0.77348   1.000
    O626    O    0.14111   0.71956   0.80174   1.000
    O627    O    0.60835   0.75601   0.75592   1.000
    O628    O    0.68476   0.81334   0.77349   1.000
    O629    O    0.64111   0.71956   0.80174   1.000
    O630    O    0.99153   0.80244   0.78109   1.000
    O631    O    0.07903   0.71503   0.80429   1.000
    O632    O    0.49153   0.80245   0.78109   1.000
    O633    O    0.57903   0.71503   0.80429   1.000
    O634    O    0.07295   0.10055   0.77053   1.000
    O635    O    0.04927   0.17007   0.79514   1.000
    O636    O    0.57297   0.10055   0.77053   1.000
    O637    O    0.54928   0.17008   0.79514   1.000
    O638    O    0.90673   0.80653   0.85049   1.000
    O639    O    0.40671   0.80655   0.85048   1.000
    O640    O    0.02273   0.25155   0.81872   1.000
    O641    O    0.99365   0.33545   0.84484   1.000
    O642    O    0.52275   0.25156   0.81872   1.000
    O643    O    0.49366   0.33545   0.84484   1.000
    O644    O    0.53190   0.17657   0.85548   1.000
    O645    O    0.03188   0.17657   0.85548   1.000
    O646    O    0.37119   0.70488   0.86583   1.000
    O647    O    0.87120   0.70487   0.86584   1.000
    O648    O    0.27455   0.98190   0.87168   1.000
    O649    O    0.77455   0.98188   0.87171   1.000
    O650    O    0.05427   0.46587   0.87776   1.000
    O651    O    0.55429   0.46586   0.87776   1.000
    O652    O    0.46257   0.40561   0.86740   1.000
    O653    O    0.96257   0.40560   0.86742   1.000
    O654    O    0.45823   0.34873   0.89921   1.000
    O655    O    0.49929   0.36596   0.89952   1.000
    O656    O    0.95823   0.34872   0.89922   1.000
    O657    O    0.99928   0.36596   0.89953   1.000
    O658    O    0.50369   0.93583   0.91756   1.000
    O659    O    0.00369   0.93581   0.91757   1.000
    O660    O    0.33085   0.81237   0.91546   1.000
    O661    O    0.39686   0.71986   0.94404   1.000
    O662    O    0.83086   0.81234   0.91547   1.000
    O663    O    0.89687   0.71985   0.94405   1.000
    O664    O    0.27247   0.91552   0.91575   1.000
    O665    O    0.22792   0.98850   0.91768   1.000
    O666    O    0.77247   0.91548   0.91577   1.000
    O667    O    0.72792   0.98846   0.91772   1.000
    O668    O    0.87684   0.08771   0.92099   1.000
    O669    O    0.37684   0.08780   0.92099   1.000
    O670    O    0.03963   0.40054   0.91164   1.000
    O671    O    0.07574   0.41975   0.92975   1.000
    O672    O    0.53965   0.40053   0.91164   1.000
    O673    O    0.57576   0.41974   0.92975   1.000
    O674    O    0.38350   0.02163   0.92573   1.000
    O675    O    0.88351   0.02153   0.92577   1.000
    O676    O    0.53061   0.33268   0.95335   1.000
    O677    O    0.03059   0.33268   0.95335   1.000
    O678    O    0.67792   0.04928   0.93299   1.000
    O679    O    0.17792   0.04933   0.93299   1.000
    O680    O    0.26086   0.85712   0.96380   1.000
    O681    O    0.76087   0.85707   0.96379   1.000
    O682    O    0.18881   0.97347   0.96801   1.000
    O683    O    0.68881   0.97341   0.96804   1.000
    O684    O    0.08363   0.90321   0.95385   1.000
    O685    O    0.58362   0.90318   0.95386   1.000
    O686    O    0.03132   0.94200   0.95411   1.000
    O687    O    0.97207   0.98897   0.95705   1.000
    O688    O    0.53132   0.94200   0.95411   1.000
    O689    O    0.47207   0.98899   0.95704   1.000
    O690    O    0.41102   0.03768   0.95743   1.000
    O691    O    0.91103   0.03762   0.95745   1.000
    O692    O    0.11089   0.42250   0.96041   1.000
    O693    O    0.61092   0.42248   0.96041   1.000
    O694    O    0.70917   0.89248   0.99621   1.000
    O695    O    0.20916   0.89255   0.99621   1.000
loop_
    _geom_bond_atom_site_label_1
    _geom_bond_atom_site_label_2
    _geom_bond_distance
    _geom_bond_site_symmetry_2
    _ccdc_geom_bond_type
    C303   O312      0.68197      .   S
    C207   O312      0.68197      .   S
    C303   O313      0.69948      .   S
    C211   O313      0.69948  1_565   S
    C303   O314      0.72448  1_554   S
    C213   O314      0.72448      .   S
    C302   O315      0.68196      .   S
    C206   O315      0.68196      .   S
    C302   O316      0.69938      .   S
    C210   O316      0.69938  1_565   S
    C302   O317      0.72457  1_554   S
    C212   O317      0.72457      .   S
    C206   O318      0.66569      .   S
    C300   O318      0.66569      .   S
    C206   O319      0.54191  1_554   S
    C86    O319      0.54191      .   S
    C207   O320      0.66563      .   S
    C301   O320      0.66563      .   S
    C207   O321      0.54195  1_554   S
    C87    O321      0.54195      .   S
    C296   O322      1.01755      .   S
    C12    O322      1.01755      .   S
    C296   O323      0.69392  1_554   S
    C194   O323      0.69392      .   S
    C296   O324      0.66733  1_554   S
    C192   O324      0.66733      .   S
    C297   O325      1.01752      .   S
    C13    O325      1.01752      .   S
    C297   O326      0.69393  1_554   S
    C195   O326      0.69393      .   S
    C297   O327      0.66730  1_554   S
    C193   O327      0.66730      .   S
    C136   O328      0.68141      .   S
    C282   O328      0.68141      .   S
    C136   O329      0.54167  1_554   S
    C16    O329      0.54167      .   S
    C136   O330      0.66730      .   S
    C280   O330      0.66730  1_556   S
    C137   O331      0.68104      .   S
    C283   O331      0.68104      .   S
    C137   O332      0.54167  1_554   S
    C17    O332      0.54167      .   S
    C137   O333      0.66730      .   S
    C281   O333      0.66730  1_556   S
    C72    O334      0.54167      .   S
    C192   O334      0.54167  1_556   S
    C73    O335      0.54168      .   S
    C193   O335      0.54168  1_556   S
    C159   O336      0.75673      .   S
    C157   O336      0.75673      .   S
    C159   O337      0.70101  1_565   S
    C162   O337      0.70101      .   S
    C159   O338      0.69990  1_554   S
    C161   O338      0.69990      .   S
    C158   O339      0.75593      .   S
    C156   O339      0.75593      .   S
    C158   O340      0.70047  1_565   S
    C163   O340      0.70047  1_655   S
    C158   O341      0.70045  1_554   S
    C160   O341      0.70045      .   S
    C216   O342      0.69770      .   S
    C162   O342      0.69770      .   S
    C216   O343      0.54575      .   S
    C96    O343      0.54575      .   S
    C216   O344      0.70048      .   S
    C214   O344      0.70048  1_556   S
    C217   O345      0.69725      .   S
    C163   O345      0.69725      .   S
    C217   O346      0.54574      .   S
    C97    O346      0.54574      .   S
    C217   O347      0.70045      .   S
    C215   O347      0.70045  1_556   S
    C31    O348      0.54212      .   S
    C151   O348      0.54212  1_556   S
    C30    O349      0.54195      .   S
    C150   O349      0.54195  1_556   S
    C18    O350      0.54180      .   S
    C138   O350      0.54180      .   S
    C19    O351      0.54189      .   S
    C139   O351      0.54189      .   S
    C138   O352      0.68692      .   S
    C140   O352      0.68692      .   S
    C138   O353      0.69382      .   S
    C280   O353      0.69382  1_556   S
    C139   O354      0.68677      .   S
    C141   O354      0.68677      .   S
    C139   O355      0.69392      .   S
    C281   O355      0.69392  1_556   S
    C156   O356      0.50046      .   S
    C38    O356      0.50046  1_545   S
    C156   O357      0.55067      .   S
    C36    O357      0.55067      .   S
    C156   O358      0.73078      .   S
    C286   O358      0.73078  1_556   S
    C157   O359      0.50058      .   S
    C39    O359      0.50058  1_545   S
    C157   O360      0.55029      .   S
    C37    O360      0.55029      .   S
    C157   O361      0.73121      .   S
    C287   O361      0.73121  1_556   S
    C163   O362      0.54692      .   S
    C43    O362      0.54692      .   S
    C162   O363      0.54623      .   S
    C42    O363      0.54623      .   S
    C210   O364      0.54131      .   S
    C90    O364      0.54131      .   S
    C210   O365      0.68591  1_565   S
    C208   O365      0.68591      .   S
    C211   O366      0.54129      .   S
    C91    O366      0.54129      .   S
    C211   O367      0.68593  1_565   S
    C209   O367      0.68593      .   S
    C300   O368      0.69205      .   S
    C208   O368      0.69205      .   S
    C300   O369      1.02465      .   S
    C12    O369      1.02465      .   S
    C301   O370      0.69207      .   S
    C209   O370      0.69207      .   S
    C301   O371      1.02467      .   S
    C13    O371      1.02467      .   S
    C283   O372      0.69230      .   S
    C141   O372      0.69230      .   S
    C283   O373      0.73531  1_655   S
    C142   O373      0.73531      .   S
    C282   O374      0.69235      .   S
    C140   O374      0.69235      .   S
    C282   O375      0.73511      .   S
    C143   O375      0.73511      .   S
    C24    O376      0.54967      .   S
    C142   O376      0.54967      .   S
    C25    O377      0.54968      .   S
    C143   O377      0.54968      .   S
    C140   O378      0.54248      .   S
    C20    O378      0.54248      .   S
    C141   O379      0.54246      .   S
    C21    O379      0.54246      .   S
    C208   O380      0.54886      .   S
    C88    O380      0.54886      .   S
    C209   O381      0.54884      .   S
    C89    O381      0.54884      .   S
    C13    O382      1.15040      .   S
    C267   O382      1.15040      .   S
    C13    O383      1.15279      .   S
    C277   O383      1.15279      .   S
    C13    O384      1.35573      .   S
    C133   O384      1.35573      .   S
    C12    O385      1.15040      .   S
    C266   O385      1.15040      .   S
    C12    O386      1.15279      .   S
    C276   O386      1.15279      .   S
    C12    O387      1.35573      .   S
    C132   O387      1.35573      .   S
    C29    O388      0.54590      .   S
    C149   O388      0.54590      .   S
    C28    O389      0.54447      .   S
    C148   O389      0.54447      .   S
    C143   O390      0.54962      .   S
    C23    O390      0.54962      .   S
    C143   O391      0.75793      .   S
    C144   O391      0.75793      .   S
    C142   O392      0.54962      .   S
    C22    O392      0.54962      .   S
    C142   O393      0.75784      .   S
    C145   O393      0.75784  1_655   S
    C270   O394      1.16109      .   S
    C14    O394      1.16109      .   S
    C270   O395      1.10781      .   S
    C134   O395      1.10781      .   S
    C271   O396      1.16110      .   S
    C15    O396      1.16110      .   S
    C271   O397      1.10785      .   S
    C135   O397      1.10785      .   S
    C267   O398      1.12672      .   S
    C133   O398      1.12672      .   S
    C267   O399      1.18329      .   S
    C11    O399      1.18329      .   S
    C266   O400      1.12672      .   S
    C132   O400      1.12672      .   S
    C266   O401      1.18324      .   S
    C10    O401      1.18324      .   S
    C148   O402      0.70111      .   S
    C144   O402      0.70111      .   S
    C148   O403      0.69961      .   S
    C174   O403      0.69961      .   S
    C149   O404      0.70111      .   S
    C145   O404      0.70111      .   S
    C149   O405      0.69818      .   S
    C175   O405      0.69818      .   S
    C145   O406      0.70108      .   S
    C147   O406      0.70108      .   S
    C144   O407      0.70101      .   S
    C146   O407      0.70101      .   S
    C276   O408      1.16293      .   S
    C15    O408      1.16293  1_655   S
    C276   O409      1.13176      .   S
    C132   O409      1.13176      .   S
    C277   O410      1.16305      .   S
    C14    O410      1.16305      .   S
    C277   O411      1.13177      .   S
    C133   O411      1.13177      .   S
    C264   O412      1.10369      .   S
    C134   O412      1.10369      .   S
    C264   O413      1.17120      .   S
    C10    O413      1.17120      .   S
    C265   O414      1.10375      .   S
    C135   O414      1.10375      .   S
    C265   O415      1.17122      .   S
    C11    O415      1.17122      .   S
    C54    O416      0.54582      .   S
    C174   O416      0.54582      .   S
    C55    O417      0.54582      .   S
    C175   O417      0.54582      .   S
    C175   O418      0.70102      .   S
    C173   O418      0.70102      .   S
    C174   O419      0.70102      .   S
    C172   O419      0.70102      .   S
    C15    O420      1.39212      .   S
    C135   O420      1.39212      .   S
    C15    O421      1.17132      .   S
    C273   O421      1.17132      .   S
    C15    O422      1.18310      .   S
    C275   O422      1.18310      .   S
    C14    O423      1.39214      .   S
    C134   O423      1.39214      .   S
    C14    O424      1.17132      .   S
    C272   O424      1.17132      .   S
    C14    O425      1.18307      .   S
    C274   O425      1.18307      .   S
    C134   O426      1.13178      .   S
    C268   O426      1.13178      .   S
    C134   O427      1.12684      .   S
    C274   O427      1.12684      .   S
    C134   O428      1.35547      .   S
    C8     O428      1.35547      .   S
    C135   O429      1.13174      .   S
    C269   O429      1.13174      .   S
    C135   O430      1.12685      .   S
    C275   O430      1.12685      .   S
    C135   O431      1.35538      .   S
    C9     O431      1.35538      .   S
    C133   O432      1.39230      .   S
    C11    O432      1.39230      .   S
    C133   O433      1.10379      .   S
    C272   O433      1.10379      .   S
    C133   O434      1.10779      .   S
    C279   O434      1.10779      .   S
    C132   O435      1.39228      .   S
    C10    O435      1.39228      .   S
    C132   O436      1.10366      .   S
    C273   O436      1.10366  1_655   S
    C132   O437      1.10780      .   S
    C278   O437      1.10780      .   S
    C10    O438      1.16332      .   S
    C268   O438      1.16332      .   S
    C10    O439      1.16123      .   S
    C278   O439      1.16123      .   S
    C11    O440      1.16327      .   S
    C269   O440      1.16327      .   S
    C11    O441      1.16120      .   S
    C279   O441      1.16120      .   S
    C146   O442      0.54587      .   S
    C27    O442      0.54587      .   S
    C146   O443      0.69817      .   S
    C176   O443      0.69817      .   S
    C147   O444      0.54587      .   S
    C26    O444      0.54587  1_455   S
    C147   O445      0.69816      .   S
    C177   O445      0.69816      .   S
    C269   O446      1.15303      .   S
    C9     O446      1.15303      .   S
    C268   O447      1.15302      .   S
    C8     O447      1.15302      .   S
    C173   O448      0.70114      .   S
    C177   O448      0.70114      .   S
    C173   O449      0.75786      .   S
    C171   O449      0.75786      .   S
    C172   O450      0.70114      .   S
    C176   O450      0.70114      .   S
    C172   O451      0.75786      .   S
    C170   O451      0.75786      .   S
    C177   O452      0.54589      .   S
    C57    O452      0.54589      .   S
    C176   O453      0.54597      .   S
    C56    O453      0.54597      .   S
    C274   O454      1.14994      .   S
    C8     O454      1.14994      .   S
    C275   O455      1.14990      .   S
    C9     O455      1.14990      .   S
    C117   O456      0.54214      .   S
    C237   O456      0.54214      .   S
    C116   O457      0.54205      .   S
    C236   O457      0.54205      .   S
    C49    O458      0.54274      .   S
    C169   O458      0.54274      .   S
    C48    O459      0.54242      .   S
    C168   O459      0.54242      .   S
    C50    O460      0.54967      .   S
    C170   O460      0.54967      .   S
    C51    O461      0.54967      .   S
    C171   O461      0.54967      .   S
    C170   O462      0.73445      .   S
    C290   O462      0.73445      .   S
    C170   O463      0.54964      .   S
    C52    O463      0.54964      .   S
    C171   O464      0.73505      .   S
    C291   O464      0.73505      .   S
    C171   O465      0.54964      .   S
    C53    O465      0.54964      .   S
    C70    O466      0.54618      .   S
    C190   O466      0.54618      .   S
    C71    O467      0.54618      .   S
    C191   O467      0.54618      .   S
    C9     O468      1.02416      .   S
    C309   O468      1.02416      .   S
    C9     O469      1.01705      .   S
    C305   O469      1.01705      .   S
    C8     O470      1.02444      .   S
    C308   O470      1.02444      .   S
    C8     O471      1.01704      .   S
    C304   O471      1.01704      .   S
    C236   O472      0.69204      .   S
    C308   O472      0.69204      .   S
    C236   O473      0.68593      .   S
    C238   O473      0.68593      .   S
    C237   O474      0.69191      .   S
    C309   O474      0.69191      .   S
    C237   O475      0.68587      .   S
    C239   O475      0.68587      .   S
    C65    O476      0.55032      .   S
    C185   O476      0.55032      .   S
    C64    O477      0.55032      .   S
    C184   O477      0.55032      .   S
    C168   O478      0.69140      .   S
    C290   O478      0.69140      .   S
    C168   O479      0.68675      .   S
    C166   O479      0.68675      .   S
    C169   O480      0.69232      .   S
    C291   O480      0.69232      .   S
    C169   O481      0.68674      .   S
    C167   O481      0.68674      .   S
    C67    O482      0.54994      .   S
    C185   O482      0.54994      .   S
    C66    O483      0.54992      .   S
    C184   O483      0.54992      .   S
    C290   O484      0.68295      .   S
    C164   O484      0.68295      .   S
    C291   O485      0.68133      .   S
    C165   O485      0.68133      .   S
    C118   O486      0.54133      .   S
    C238   O486      0.54133      .   S
    C119   O487      0.54132      .   S
    C239   O487      0.54132      .   S
    C309   O488      0.66619      .   S
    C235   O488      0.66619      .   S
    C308   O489      0.66566      .   S
    C234   O489      0.66566      .   S
    C238   O490      0.69217      .   S
    C310   O490      0.69217      .   S
    C239   O491      0.69224      .   S
    C311   O491      0.69224      .   S
    C125   O492      0.54576      .   S
    C245   O492      0.54576      .   S
    C124   O493      0.54575      .   S
    C244   O493      0.54575      .   S
    C190   O494      0.69750      .   S
    C245   O494      0.69750  1_655   S
    C190   O495      0.70035      .   S
    C186   O495      0.70035      .   S
    C191   O496      0.69767      .   S
    C244   O496      0.69767      .   S
    C191   O497      0.70083      .   S
    C187   O497      0.70083      .   S
    C184   O498      0.75628      .   S
    C186   O498      0.75628      .   S
    C184   O499      0.73113      .   S
    C294   O499      0.73113      .   S
    C185   O500      0.75631      .   S
    C187   O500      0.75631      .   S
    C185   O501      0.73120      .   S
    C295   O501      0.73120      .   S
    C166   O502      0.54190      .   S
    C46    O502      0.54190      .   S
    C166   O503      0.69393      .   S
    C288   O503      0.69393      .   S
    C167   O504      0.54190      .   S
    C47    O504      0.54190      .   S
    C167   O505      0.69391      .   S
    C289   O505      0.69391      .   S
    C59    O506      0.54203      .   S
    C179   O506      0.54203      .   S
    C58    O507      0.54195      .   S
    C178   O507      0.54195      .   S
    C244   O508      0.70050      .   S
    C242   O508      0.70050      .   S
    C245   O509      0.65962      .   S
    C243   O509      0.65962      .   S
    C186   O510      0.70098      .   S
    C188   O510      0.70098      .   S
    C187   O511      0.70049      .   S
    C189   O511      0.70049      .   S
    C101   O512      0.54164      .   S
    C221   O512      0.54164      .   S
    C100   O513      0.54163      .   S
    C220   O513      0.54163      .   S
    C164   O514      0.66730      .   S
    C288   O514      0.66730      .   S
    C164   O515      0.54164      .   S
    C44    O515      0.54164      .   S
    C165   O516      0.66729      .   S
    C289   O516      0.66729      .   S
    C165   O517      0.54163      .   S
    C45    O517      0.54163      .   S
    C304   O518      0.66730      .   S
    C220   O518      0.66730      .   S
    C304   O519      0.69391      .   S
    C222   O519      0.69391      .   S
    C305   O520      0.66730      .   S
    C221   O520      0.66730      .   S
    C305   O521      0.69392      .   S
    C223   O521      0.69392      .   S
    C234   O522      0.68140      .   S
    C310   O522      0.68140      .   S
    C234   O523      0.54198      .   S
    C114   O523      0.54198      .   S
    C235   O524      0.68138      .   S
    C311   O524      0.68138      .   S
    C235   O525      0.54194      .   S
    C115   O525      0.54194      .   S
    C310   O526      0.73119      .   S
    C240   O526      0.73119      .   S
    C311   O527      0.73112      .   S
    C241   O527      0.73112      .   S
    C294   O528      0.68138      .   S
    C178   O528      0.68138      .   S
    C294   O529      0.69225      .   S
    C182   O529      0.69225      .   S
    C295   O530      0.68139      .   S
    C179   O530      0.68139      .   S
    C295   O531      0.69217      .   S
    C183   O531      0.69217      .   S
    C178   O532      0.66568      .   S
    C292   O532      0.66568      .   S
    C179   O533      0.66567      .   S
    C293   O533      0.66567      .   S
    C289   O534      1.01705      .   S
    C1     O534      1.01705      .   S
    C288   O535      1.01706      .   S
    C0     O535      1.01706      .   S
    C221   O536      0.68134      .   S
    C307   O536      0.68134      .   S
    C220   O537      0.68132      .   S
    C306   O537      0.68132      .   S
    C243   O538      0.76135      .   S
    C241   O538      0.76135      .   S
    C243   O539      0.74467      .   S
    C247   O539      0.74467      .   S
    C242   O540      0.75632      .   S
    C240   O540      0.75632      .   S
    C242   O541      0.70082      .   S
    C246   O541      0.70082      .   S
    C188   O542      0.69750  1_455   S
    C247   O542      0.69750      .   S
    C188   O543      0.54575      .   S
    C68    O543      0.54575      .   S
    C189   O544      0.69767      .   S
    C246   O544      0.69767      .   S
    C189   O545      0.54575      .   S
    C69    O545      0.54575      .   S
    C102   O546      0.54189      .   S
    C222   O546      0.54189      .   S
    C103   O547      0.54190      .   S
    C223   O547      0.54190      .   S
    C222   O548      0.68674      .   S
    C224   O548      0.68674      .   S
    C223   O549      0.68675      .   S
    C225   O549      0.68675      .   S
    C240   O550      0.54990      .   S
    C122   O550      0.54990      .   S
    C240   O551      0.55030      .   S
    C120   O551      0.55030      .   S
    C241   O552      0.54993      .   S
    C123   O552      0.54993      .   S
    C241   O553      0.55031      .   S
    C121   O553      0.55031      .   S
    C246   O554      0.54618      .   S
    C126   O554      0.54618      .   S
    C247   O555      0.54618      .   S
    C127   O555      0.54618      .   S
    C183   O556      0.54132      .   S
    C63    O556      0.54132      .   S
    C183   O557      0.68594      .   S
    C181   O557      0.68594      .   S
    C182   O558      0.54133      .   S
    C62    O558      0.54133      .   S
    C182   O559      0.68587      .   S
    C180   O559      0.68587      .   S
    C292   O560      0.69204      .   S
    C180   O560      0.69204      .   S
    C292   O561      1.02449      .   S
    C0     O561      1.02449      .   S
    C293   O562      0.69204      .   S
    C181   O562      0.69204      .   S
    C293   O563      1.02445      .   S
    C1     O563      1.02445      .   S
    C109   O564      0.54964      .   S
    C227   O564      0.54964      .   S
    C108   O565      0.54964      .   S
    C226   O565      0.54964      .   S
    C307   O566      0.69233      .   S
    C225   O566      0.69233      .   S
    C307   O567      0.73505      .   S
    C227   O567      0.73505      .   S
    C306   O568      0.69233      .   S
    C224   O568      0.69233      .   S
    C306   O569      0.73505      .   S
    C226   O569      0.73505      .   S
    C225   O570      0.54242      .   S
    C105   O570      0.54242      .   S
    C224   O571      0.54246      .   S
    C104   O571      0.54246      .   S
    C180   O572      0.54140      .   S
    C60    O572      0.54140      .   S
    C181   O573      0.54205      .   S
    C61    O573      0.54205      .   S
    C0     O574      1.14992      .   S
    C258   O574      1.14992      .   S
    C0     O575      1.15300      .   S
    C252   O575      1.15300      .   S
    C0     O576      1.35539      .   S
    C130   O576      1.35539      .   S
    C1     O577      1.14993      .   S
    C259   O577      1.14993      .   S
    C1     O578      1.15305      .   S
    C253   O578      1.15305      .   S
    C1     O579      1.35548      .   S
    C131   O579      1.35548      .   S
    C113   O580      0.54589      .   S
    C233   O580      0.54589      .   S
    C112   O581      0.54589      .   S
    C232   O581      0.54589      .   S
    C226   O582      0.54967      .   S
    C106   O582      0.54967      .   S
    C226   O583      0.75793      .   S
    C228   O583      0.75793      .   S
    C227   O584      0.54967      .   S
    C107   O584      0.54967      .   S
    C227   O585      0.75786      .   S
    C229   O585      0.75786      .   S
    C262   O586      1.16120      .   S
    C2     O586      1.16120      .   S
    C262   O587      1.10763      .   S
    C128   O587      1.10763      .   S
    C263   O588      1.16123      .   S
    C3     O588      1.16123      .   S
    C263   O589      1.10788      .   S
    C129   O589      1.10788      .   S
    C259   O590      1.12689      .   S
    C131   O590      1.12689      .   S
    C259   O591      1.18310      .   S
    C7     O591      1.18310      .   S
    C258   O592      1.12683      .   S
    C130   O592      1.12683      .   S
    C258   O593      1.18306      .   S
    C6     O593      1.18306      .   S
    C233   O594      0.70114      .   S
    C229   O594      0.70114      .   S
    C233   O595      0.69817      .   S
    C203   O595      0.69817      .   S
    C232   O596      0.70114      .   S
    C228   O596      0.70114      .   S
    C232   O597      0.69808      .   S
    C202   O597      0.69808      .   S
    C229   O598      0.70102      .   S
    C231   O598      0.70102      .   S
    C228   O599      0.70095      .   S
    C230   O599      0.70095      .   S
    C252   O600      1.16328      .   S
    C2     O600      1.16328      .   S
    C252   O601      1.13175      .   S
    C130   O601      1.13175      .   S
    C253   O602      1.16326      .   S
    C3     O602      1.16326      .   S
    C253   O603      1.13176      .   S
    C131   O603      1.13176      .   S
    C257   O604      1.10373      .   S
    C128   O604      1.10373      .   S
    C257   O605      1.17131      .   S
    C7     O605      1.17131      .   S
    C256   O606      1.10365  1_455   S
    C129   O606      1.10365      .   S
    C256   O607      1.17126      .   S
    C6     O607      1.17126      .   S
    C83    O608      0.54587  1_655   S
    C202   O608      0.54587      .   S
    C82    O609      0.54587      .   S
    C203   O609      0.54587      .   S
    C202   O610      0.70116      .   S
    C200   O610      0.70116      .   S
    C203   O611      0.70108      .   S
    C201   O611      0.70108      .   S
    C2     O612      1.39223      .   S
    C128   O612      1.39223      .   S
    C2     O613      1.17120      .   S
    C248   O613      1.17120      .   S
    C2     O614      1.18329      .   S
    C250   O614      1.18329      .   S
    C3     O615      1.39231      .   S
    C129   O615      1.39231      .   S
    C3     O616      1.17121      .   S
    C249   O616      1.17121      .   S
    C3     O617      1.18331      .   S
    C251   O617      1.18331      .   S
    C128   O618      1.13194      .   S
    C260   O618      1.13194      .   S
    C128   O619      1.12680      .   S
    C250   O619      1.12680      .   S
    C128   O620      1.35589      .   S
    C4     O620      1.35589      .   S
    C129   O621      1.13175      .   S
    C261   O621      1.13175      .   S
    C129   O622      1.12673      .   S
    C251   O622      1.12673      .   S
    C129   O623      1.35572      .   S
    C5     O623      1.35572      .   S
    C130   O624      1.39214      .   S
    C6     O624      1.39214      .   S
    C130   O625      1.10372      .   S
    C248   O625      1.10372      .   S
    C130   O626      1.10784      .   S
    C254   O626      1.10784      .   S
    C131   O627      1.39214      .   S
    C7     O627      1.39214      .   S
    C131   O628      1.10370      .   S
    C249   O628      1.10370      .   S
    C131   O629      1.10780      .   S
    C255   O629      1.10780      .   S
    C6     O630      1.16294  1_455   S
    C261   O630      1.16294      .   S
    C6     O631      1.16116      .   S
    C254   O631      1.16116      .   S
    C7     O632      1.16305      .   S
    C260   O632      1.16305      .   S
    C7     O633      1.16107      .   S
    C255   O633      1.16107      .   S
    C230   O634      0.54582      .   S
    C110   O634      0.54582      .   S
    C230   O635      0.69818      .   S
    C204   O635      0.69818      .   S
    C231   O636      0.54582      .   S
    C111   O636      0.54582      .   S
    C231   O637      0.69818      .   S
    C205   O637      0.69818      .   S
    C261   O638      1.15278      .   S
    C5     O638      1.15278      .   S
    C260   O639      1.15275      .   S
    C4     O639      1.15275      .   S
    C200   O640      0.70111      .   S
    C204   O640      0.70111      .   S
    C200   O641      0.75791  1_455   S
    C199   O641      0.75791      .   S
    C201   O642      0.70111      .   S
    C205   O642      0.70111      .   S
    C201   O643      0.75784      .   S
    C198   O643      0.75784      .   S
    C205   O644      0.54590      .   S
    C85    O644      0.54590      .   S
    C204   O645      0.54590      .   S
    C84    O645      0.54590      .   S
    C250   O646      1.15039      .   S
    C4     O646      1.15039      .   S
    C251   O647      1.15039      .   S
    C5     O647      1.15039      .   S
    C32    O648      0.54206      .   S
    C152   O648      0.54206      .   S
    C33    O649      0.54208      .   S
    C153   O649      0.54208      .   S
    C76    O650      0.54247      .   S
    C196   O650      0.54247      .   S
    C77    O651      0.54247      .   S
    C197   O651      0.54247      .   S
    C78    O652      0.54962      .   S
    C198   O652      0.54962      .   S
    C79    O653      0.54962      .   S
    C199   O653      0.54962      .   S
    C198   O654      0.54968      .   S
    C80    O654      0.54968      .   S
    C198   O655      0.73518      .   S
    C299   O655      0.73518      .   S
    C199   O656      0.54967      .   S
    C81    O656      0.54967      .   S
    C199   O657      0.73496      .   S
    C298   O657      0.73496  1_455   S
    C99    O658      0.54623      .   S
    C219   O658      0.54623      .   S
    C98    O659      0.54618      .   S
    C218   O659      0.54618      .   S
    C4     O660      1.02468      .   S
    C284   O660      1.02468      .   S
    C4     O661      1.01757      .   S
    C280   O661      1.01757      .   S
    C5     O662      1.02467      .   S
    C285   O662      1.02467      .   S
    C5     O663      1.01753      .   S
    C281   O663      1.01753      .   S
    C152   O664      0.69207      .   S
    C284   O664      0.69207      .   S
    C152   O665      0.68593      .   S
    C154   O665      0.68593  1_545   S
    C153   O666      0.69208      .   S
    C285   O666      0.69208      .   S
    C153   O667      0.68595      .   S
    C155   O667      0.68595  1_545   S
    C93    O668      0.55037      .   S
    C213   O668      0.55037      .   S
    C92    O669      0.55030      .   S
    C212   O669      0.55030      .   S
    C196   O670      0.69235      .   S
    C298   O670      0.69235      .   S
    C196   O671      0.68671      .   S
    C194   O671      0.68671      .   S
    C197   O672      0.69235      .   S
    C299   O672      0.69235      .   S
    C197   O673      0.68671      .   S
    C195   O673      0.68671      .   S
    C94    O674      0.54998  1_565   S
    C212   O674      0.54998      .   S
    C95    O675      0.54996  1_565   S
    C213   O675      0.54996      .   S
    C299   O676      0.68135      .   S
    C193   O676      0.68135      .   S
    C298   O677      0.68134      .   S
    C192   O677      0.68134      .   S
    C35    O678      0.54140      .   S
    C155   O678      0.54140      .   S
    C34    O679      0.54131      .   S
    C154   O679      0.54131      .   S
    C284   O680      0.66568      .   S
    C150   O680      0.66568      .   S
    C285   O681      0.66543      .   S
    C151   O681      0.66543      .   S
    C154   O682      0.69221  1_545   S
    C286   O682      0.69221      .   S
    C155   O683      0.69217  1_545   S
    C287   O683      0.69217      .   S
    C40    O684      0.54574      .   S
    C160   O684      0.54574      .   S
    C41    O685      0.54575      .   S
    C161   O685      0.54575      .   S
    C218   O686      0.69771      .   S
    C160   O686      0.69771      .   S
    C218   O687      0.70074  1_455   S
    C215   O687      0.70074  1_545   S
    C219   O688      0.69771      .   S
    C161   O688      0.69771      .   S
    C219   O689      0.70080      .   S
    C214   O689      0.70080  1_545   S
    C212   O690      0.75634      .   S
    C214   O690      0.75634      .   S
    C213   O691      0.75640      .   S
    C215   O691      0.75640      .   S
    C194   O692      0.54189      .   S
    C74    O692      0.54189      .   S
    C195   O693      0.54189      .   S
    C75    O693      0.54189      .   S
    C151   O694      0.68136      .   S
    C287   O694      0.68136      .   S
    C150   O695      0.68134      .   S
    C286   O695      0.68134      .   S
