# CIF file generated by openbabel 2.4.90, see http://openbabel.sf.net
data_I
_chemical_name_common ''
_cell_length_a 22.218
_cell_length_b 14.321
_cell_length_c 18.373
_cell_angle_alpha 74.409
_cell_angle_beta 72.493
_cell_angle_gamma 67.103
_space_group_name_H-M_alt 'P 1'
_space_group_name_Hall 'P 1'
loop_
    _symmetry_equiv_pos_as_xyz
    x,y,z
loop_
    _atom_site_label
    _atom_site_type_symbol
    _atom_site_fract_x
    _atom_site_fract_y
    _atom_site_fract_z
    _atom_site_occupancy
    Zr0     Zr   0.19909   0.86614   0.79359   1.000
    Zr1     Zr   0.69910   0.86613   0.79360   1.000
    Zr2     Zr   0.36573   0.65009   0.83441   1.000
    Zr3     Zr   0.86575   0.65007   0.83442   1.000
    Zr4     Zr   0.26536   0.64714   0.69572   1.000
    Zr5     Zr   0.76536   0.64713   0.69573   1.000
    Zr6     Zr   0.11180   0.67858   0.85011   1.000
    Zr7     Zr   0.61180   0.67858   0.85011   1.000
    Zr8     Zr   0.02905   0.63425   0.70595   1.000
    Zr9     Zr   0.52906   0.63425   0.70595   1.000
    Zr10    Zr   0.10756   0.85051   0.66510   1.000
    Zr11    Zr   0.60757   0.85050   0.66510   1.000
    Zr12    Zr   0.43679   0.85341   0.80371   1.000
    Zr13    Zr   0.93680   0.85340   0.80371   1.000
    Zr14    Zr   0.37588   0.82181   0.64932   1.000
    Zr15    Zr   0.87588   0.82180   0.64932   1.000
    Zr16    Zr   0.30090   0.13390   0.20637   1.000
    Zr17    Zr   0.80091   0.13389   0.20637   1.000
    Zr18    Zr   0.13425   0.34997   0.16555   1.000
    Zr19    Zr   0.63427   0.34995   0.16555   1.000
    Zr20    Zr   0.23464   0.35290   0.30425   1.000
    Zr21    Zr   0.73464   0.35289   0.30425   1.000
    Zr22    Zr   0.38820   0.32145   0.14986   1.000
    Zr23    Zr   0.88820   0.32145   0.14986   1.000
    Zr24    Zr   0.47094   0.36577   0.29402   1.000
    Zr25    Zr   0.97094   0.36578   0.29402   1.000
    Zr26    Zr   0.39243   0.14952   0.33486   1.000
    Zr27    Zr   0.89244   0.14952   0.33487   1.000
    Zr28    Zr   0.06321   0.14663   0.19626   1.000
    Zr29    Zr   0.56321   0.14662   0.19626   1.000
    Zr30    Zr   0.12412   0.17824   0.35064   1.000
    Zr31    Zr   0.62413   0.17823   0.35064   1.000
    N32     N    0.08843   0.24986   0.74981   1.000
    N33     N    0.00000   0.99969   0.99993   1.000
    N34     N    0.91157   0.75017   0.25016   1.000
    N35     N    0.58844   0.24986   0.74981   1.000
    N36     N    0.41156   0.75017   0.25014   1.000
    N37     N    0.50000   0.99969   0.99993   1.000
    N38     N    0.00000   0.50001   0.49976   1.000
    N39     N    0.50000   0.50001   0.49998   1.000
    Zr40    Zr   0.85957   0.24904   0.29528   1.000
    O41     O    0.85923   0.26475   0.24676   1.000
    O42     O    0.82084   0.27261   0.28535   1.000
    O43     O    0.83741   0.21786   0.26088   1.000
    O44     O    0.86029   0.22177   0.29301   1.000
    O45     O    0.85174   0.22667   0.33079   1.000
    O46     O    0.81229   0.27751   0.32313   1.000
    O47     O    0.76983   0.24183   0.44620   1.000
    O48     O    0.88119   0.32747   0.37657   1.000
    O49     O    0.89133   0.22404   0.29173   1.000
    O50     O    0.91096   0.27810   0.28152   1.000
    O51     O    0.93402   0.22331   0.25708   1.000
    O52     O    0.89027   0.26702   0.24548   1.000
    Zr53    Zr   0.35956   0.24904   0.29527   1.000
    O54     O    0.39132   0.22404   0.29173   1.000
    O55     O    0.39026   0.26702   0.24548   1.000
    O56     O    0.43402   0.22331   0.25708   1.000
    O57     O    0.41095   0.27810   0.28152   1.000
    O58     O    0.31228   0.27752   0.32313   1.000
    O59     O    0.35173   0.22668   0.33078   1.000
    O60     O    0.38118   0.32747   0.37663   1.000
    O61     O    0.26982   0.24183   0.44620   1.000
    O62     O    0.33740   0.21787   0.26088   1.000
    O63     O    0.36028   0.22177   0.29300   1.000
    O64     O    0.35922   0.26475   0.24675   1.000
    O65     O    0.32083   0.27262   0.28535   1.000
    Zr66    Zr   0.63157   0.25048   0.20518   1.000
    O67     O    0.61496   0.23482   0.25371   1.000
    O68     O    0.57667   0.28171   0.23955   1.000
    O69     O    0.59973   0.22692   0.21511   1.000
    O70     O    0.61750   0.27775   0.20744   1.000
    O71     O    0.69070   0.22146   0.21893   1.000
    O72     O    0.64651   0.23255   0.25499   1.000
    O73     O    0.64904   0.27548   0.20872   1.000
    O74     O    0.67414   0.27621   0.24340   1.000
    O75     O    0.63019   0.27281   0.16965   1.000
    O76     O    0.61243   0.22198   0.17733   1.000
    O77     O    0.61368   0.25774   0.05402   1.000
    O78     O    0.73307   0.17208   0.12370   1.000
    Zr79    Zr   0.13156   0.25049   0.20517   1.000
    O80     O    0.23307   0.17209   0.12369   1.000
    O81     O    0.13018   0.27283   0.16965   1.000
    O82     O    0.11242   0.22199   0.17733   1.000
    O83     O    0.11367   0.25776   0.05402   1.000
    O84     O    0.07666   0.28172   0.23955   1.000
    O85     O    0.11495   0.23483   0.25371   1.000
    O86     O    0.09972   0.22693   0.21511   1.000
    O87     O    0.11749   0.27777   0.20743   1.000
    O88     O    0.14903   0.27549   0.20872   1.000
    O89     O    0.17413   0.27622   0.24339   1.000
    O90     O    0.19069   0.22148   0.21892   1.000
    O91     O    0.14650   0.23256   0.25499   1.000
    Zr92    Zr   0.86844   0.74954   0.79479   1.000
    O93     O    0.82587   0.72381   0.75658   1.000
    O94     O    0.85350   0.76747   0.74497   1.000
    O95     O    0.80931   0.77856   0.78104   1.000
    O96     O    0.85097   0.72454   0.79125   1.000
    O97     O    0.88505   0.76520   0.74626   1.000
    O98     O    0.90028   0.77310   0.78486   1.000
    O99     O    0.88251   0.72227   0.79253   1.000
    O100    O    0.92334   0.71831   0.76042   1.000
    O101    O    0.76694   0.82778   0.87625   1.000
    O102    O    0.88758   0.77804   0.82264   1.000
    O103    O    0.86982   0.72720   0.83032   1.000
    O104    O    0.88633   0.74227   0.94595   1.000
    Zr105   Zr   0.64044   0.75098   0.70470   1.000
    O106    O    0.63972   0.77825   0.70697   1.000
    O107    O    0.67917   0.72741   0.71462   1.000
    O108    O    0.66260   0.78216   0.73909   1.000
    O109    O    0.64078   0.73527   0.75322   1.000
    O110    O    0.64828   0.77335   0.66919   1.000
    O111    O    0.68772   0.72250   0.67684   1.000
    O112    O    0.73018   0.75819   0.55377   1.000
    O113    O    0.61882   0.67255   0.62334   1.000
    O114    O    0.60868   0.77599   0.70824   1.000
    O115    O    0.56599   0.77671   0.74289   1.000
    O116    O    0.60974   0.73301   0.75449   1.000
    O117    O    0.58905   0.72193   0.71845   1.000
    Zr118   Zr   0.14044   0.75099   0.70469   1.000
    O119    O    0.14827   0.77335   0.66918   1.000
    O120    O    0.18771   0.72251   0.67684   1.000
    O121    O    0.11882   0.67256   0.62328   1.000
    O122    O    0.23017   0.75820   0.55377   1.000
    O123    O    0.13971   0.77826   0.70696   1.000
    O124    O    0.17916   0.72742   0.71462   1.000
    O125    O    0.14077   0.73528   0.75321   1.000
    O126    O    0.16260   0.78217   0.73908   1.000
    O127    O    0.10867   0.77599   0.70824   1.000
    O128    O    0.06598   0.77671   0.74289   1.000
    O129    O    0.10973   0.73301   0.75449   1.000
    O130    O    0.08905   0.72193   0.71845   1.000
    Zr131   Zr   0.36843   0.74955   0.79478   1.000
    O132    O    0.32586   0.72382   0.75656   1.000
    O133    O    0.30930   0.77857   0.78103   1.000
    O134    O    0.35096   0.72456   0.79124   1.000
    O135    O    0.35349   0.76749   0.74496   1.000
    O136    O    0.38757   0.77805   0.82263   1.000
    O137    O    0.36981   0.72722   0.83030   1.000
    O138    O    0.38632   0.74228   0.94593   1.000
    O139    O    0.26693   0.82779   0.87623   1.000
    O140    O    0.38504   0.76521   0.74624   1.000
    O141    O    0.40027   0.77311   0.78484   1.000
    O142    O    0.38250   0.72228   0.79252   1.000
    O143    O    0.42333   0.71832   0.76040   1.000
loop_
    _geom_bond_atom_site_label_1
    _geom_bond_atom_site_label_2
    _geom_bond_distance
    _geom_bond_site_symmetry_2
    _ccdc_geom_bond_type
    Zr40   O41       0.86040      .   S
    Zr23   O41       1.78416      .   S
    Zr40   O42       0.85019      .   S
    Zr21   O42       1.79195      .   S
    Zr40   O43       1.16233      .   S
    Zr17   O43       2.23648      .   S
    Zr40   O44       0.39748      .   S
    Zr27   O44       1.22475      .   S
    Zr40   O45       0.64904      .   S
    Zr27   O45       1.12384      .   S
    Zr40   O46       0.99350      .   S
    Zr21   O46       1.72371      .   S
    Zr40   O47       2.89044      .   S
    N35    O47       5.81642      .   S
    Zr40   O48       2.34015      .   S
    N38    O48       5.46574  1_455   S
    Zr40   O49       0.64708      .   S
    Zr27   O49       1.14204      .   S
    Zr40   O50       1.29626      .   S
    Zr25   O50       2.24663      .   S
    Zr40   O51       1.52675      .   S
    Zr28   O51       2.64009  1_455   S
    Zr40   O52       1.00165      .   S
    Zr23   O52       1.72646      .   S
    Zr53   O54       0.64708      .   S
    Zr26   O54       1.14200      .   S
    Zr53   O55       1.00163      .   S
    Zr22   O55       1.72643      .   S
    Zr53   O56       1.52682      .   S
    Zr29   O56       2.64029      .   S
    Zr53   O57       1.29626      .   S
    Zr24   O57       2.24665      .   S
    Zr53   O58       0.99351      .   S
    Zr20   O58       1.72369      .   S
    Zr53   O59       0.64902      .   S
    Zr26   O59       1.12383      .   S
    Zr53   O60       2.34116      .   S
    N39    O60       5.46788      .   S
    Zr53   O61       2.89047      .   S
    N32    O61       5.81646      .   S
    Zr53   O62       1.16234      .   S
    Zr16   O62       2.23641      .   S
    Zr53   O63       0.39750      .   S
    Zr26   O63       1.22471      .   S
    Zr53   O64       0.86042      .   S
    Zr22   O64       1.78411      .   S
    Zr53   O65       0.85019      .   S
    Zr20   O65       1.79196      .   S
    Zr66   O67       0.86051      .   S
    Zr31   O67       1.78434      .   S
    Zr66   O68       1.16222      .   S
    Zr24   O68       2.23639      .   S
    Zr66   O69       0.84996      .   S
    Zr29   O69       1.79172      .   S
    Zr66   O70       0.39736      .   S
    Zr19   O70       1.22458      .   S
    Zr66   O71       1.29654      .   S
    Zr17   O71       2.24664      .   S
    Zr66   O72       1.00196      .   S
    Zr31   O72       1.72657      .   S
    Zr66   O73       0.64728      .   S
    Zr19   O73       1.14187      .   S
    Zr66   O74       1.52747      .   S
    Zr21   O74       2.64122      .   S
    Zr66   O75       0.64916      .   S
    Zr19   O75       1.12385      .   S
    Zr66   O76       0.99368      .   S
    Zr29   O76       1.72317      .   S
    Zr66   O77       2.89102      .   S
    N35    O77       5.81734  1_556   S
    Zr66   O78       2.34300      .   S
    N33    O78       5.47250  1_466   S
    Zr79   O80       2.34304      .   S
    N37    O80       5.47266  1_566   S
    Zr79   O81       0.64914      .   S
    Zr18   O81       1.12386      .   S
    Zr79   O82       0.99366      .   S
    Zr28   O82       1.72316      .   S
    Zr79   O83       2.89100      .   S
    N32    O83       5.81733  1_556   S
    Zr79   O84       1.16216      .   S
    Zr25   O84       2.23620  1_655   S
    Zr79   O85       0.86054      .   S
    Zr30   O85       1.78438      .   S
    Zr79   O86       0.84995      .   S
    Zr28   O86       1.79170      .   S
    Zr79   O87       0.39737      .   S
    Zr18   O87       1.22458      .   S
    Zr79   O88       0.64727      .   S
    Zr18   O88       1.14184      .   S
    Zr79   O89       1.52748      .   S
    Zr20   O89       2.64129      .   S
    Zr79   O90       1.29653      .   S
    Zr16   O90       2.24664      .   S
    Zr79   O91       1.00195      .   S
    Zr30   O91       1.72663      .   S
    Zr92   O93       1.52746      .   S
    Zr5    O93       2.64119      .   S
    Zr92   O94       1.00201      .   S
    Zr15   O94       1.72668      .   S
    Zr92   O95       1.29656      .   S
    Zr1    O95       2.24665      .   S
    Zr92   O96       0.64728      .   S
    Zr3    O96       1.14189      .   S
    Zr92   O97       0.86055      .   S
    Zr15   O97       1.78448      .   S
    Zr92   O98       0.84995      .   S
    Zr13   O98       1.79170      .   S
    Zr92   O99       0.39736      .   S
    Zr3    O99       1.22459      .   S
    Zr92   O100      1.16214      .   S
    Zr8    O100      2.23617  1_455   S
    Zr92   O101      2.34216      .   S
    N37    O101      5.47137      .   S
    Zr92   O102      0.99367      .   S
    Zr13   O102      1.72315      .   S
    Zr92   O103      0.64917      .   S
    Zr3    O103      1.12385      .   S
    Zr92   O104      2.89101      .   S
    N34    O104      5.81731  1_554   S
    Zr105  O106      0.39748      .   S
    Zr11   O106      1.22477      .   S
    Zr105  O107      0.85019      .   S
    Zr5    O107      1.79194      .   S
    Zr105  O108      1.16233      .   S
    Zr1    O108      2.23642      .   S
    Zr105  O109      0.86041      .   S
    Zr7    O109      1.78410      .   S
    Zr105  O110      0.64906      .   S
    Zr11   O110      1.12383      .   S
    Zr105  O111      0.99351      .   S
    Zr5    O111      1.72370      .   S
    Zr105  O112      2.89047      .   S
    N34    O112      5.81646      .   S
    Zr105  O113      2.34116      .   S
    N39    O113      5.46789      .   S
    Zr105  O114      0.64709      .   S
    Zr11   O114      1.14204      .   S
    Zr105  O115      1.52683      .   S
    Zr12   O115      2.64031      .   S
    Zr105  O116      1.00164      .   S
    Zr7    O116      1.72641      .   S
    Zr105  O117      1.29628      .   S
    Zr9    O117      2.24666      .   S
    Zr118  O119      0.64901      .   S
    Zr10   O119      1.12383      .   S
    Zr118  O120      0.99350      .   S
    Zr4    O120      1.72369      .   S
    Zr118  O121      2.34196      .   S
    N38    O121      5.46987      .   S
    Zr118  O122      2.89047      .   S
    N36    O122      5.81654      .   S
    Zr118  O123      0.39748      .   S
    Zr10   O123      1.22472      .   S
    Zr118  O124      0.85019      .   S
    Zr4    O124      1.79195      .   S
    Zr118  O125      0.86043      .   S
    Zr6    O125      1.78418      .   S
    Zr118  O126      1.16233      .   S
    Zr0    O126      2.23643      .   S
    Zr118  O127      0.64708      .   S
    Zr10   O127      1.14199      .   S
    Zr118  O128      1.52675      .   S
    Zr13   O128      2.64010  1_655   S
    Zr118  O129      1.00164      .   S
    Zr6    O129      1.72651      .   S
    Zr118  O130      1.29628      .   S
    Zr8    O130      2.24662      .   S
    Zr131  O132      1.52740      .   S
    Zr4    O132      2.64114      .   S
    Zr131  O133      1.29653      .   S
    Zr0    O133      2.24665      .   S
    Zr131  O134      0.64725      .   S
    Zr2    O134      1.14191      .   S
    Zr131  O135      1.00189      .   S
    Zr14   O135      1.72652      .   S
    Zr131  O136      0.99375      .   S
    Zr12   O136      1.72317      .   S
    Zr131  O137      0.64922      .   S
    Zr2    O137      1.12384      .   S
    Zr131  O138      2.89106      .   S
    N36    O138      5.81728  1_554   S
    Zr131  O139      2.34216      .   S
    N33    O139      5.47123      .   S
    Zr131  O140      0.86054      .   S
    Zr14   O140      1.78420      .   S
    Zr131  O141      0.84995      .   S
    Zr12   O141      1.79184      .   S
    Zr131  O142      0.39736      .   S
    Zr2    O142      1.22463      .   S
    Zr131  O143      1.16221      .   S
    Zr9    O143      2.23631      .   S
