# CIF file generated by openbabel 2.4.90, see http://openbabel.sf.net
data_I
_chemical_name_common ''
_cell_length_a 12.416
_cell_length_b 12.439
_cell_length_c 27.049
_cell_angle_alpha 90.02
_cell_angle_beta 89.986
_cell_angle_gamma 119.911
_space_group_name_H-M_alt 'P 1'
_space_group_name_Hall 'P 1'
loop_
    _symmetry_equiv_pos_as_xyz
    x,y,z
loop_
    _atom_site_label
    _atom_site_type_symbol
    _atom_site_fract_x
    _atom_site_fract_y
    _atom_site_fract_z
    _atom_site_occupancy
    Zn0     Zn   0.99997   0.99935   0.33345   1.000
    Zn1     Zn   0.99992   0.99923   0.00159   1.000
    Zn2     Zn   0.00051   0.99939   0.66634   1.000
    Pt3     Pt   0.50035   0.99944   0.74488   1.000
    Pt4     Pt   0.49991   0.49968   0.41106   1.000
    Pt5     Pt   0.99987   0.49937   0.07904   1.000
    Pt6     Pt   0.50006   0.99950   0.92268   1.000
    Pt7     Pt   0.00010   0.49948   0.25616   1.000
    Pt8     Pt   0.50010   0.49955   0.58834   1.000
    Au9     Au   0.38954   0.77798   0.83374   1.000
    Au10    Au   0.38799   0.60985   0.49992   1.000
    Au11    Au   0.22218   0.60942   0.16746   1.000
    Au12    Au   0.61078   0.22099   0.83379   1.000
    Au13    Au   0.61201   0.38937   0.49981   1.000
    Au14    Au   0.77778   0.38946   0.16750   1.000
