# CIF file generated by openbabel 2.4.90, see http://openbabel.sf.net
data_I
_chemical_name_common ''
_cell_length_a 12.416
_cell_length_b 12.439
_cell_length_c 27.049
_cell_angle_alpha 90.02
_cell_angle_beta 89.986
_cell_angle_gamma 119.911
_space_group_name_H-M_alt 'P 1'
_space_group_name_Hall 'P 1'
loop_
    _symmetry_equiv_pos_as_xyz
    x,y,z
loop_
    _atom_site_label
    _atom_site_type_symbol
    _atom_site_fract_x
    _atom_site_fract_y
    _atom_site_fract_z
    _atom_site_occupancy
    Zr0     Zr   0.00051   0.99939   0.66634   1.000
    Zr1     Zr   0.99997   0.99935   0.33345   1.000
    Zr2     Zr   0.99992   0.99923   0.00159   1.000
    Zr3     Zr   0.50035   0.99944   0.74488   1.000
    Zr4     Zr   0.49991   0.49968   0.41106   1.000
    Zr5     Zr   0.99987   0.49937   0.07904   1.000
    Zr6     Zr   0.50006   0.99950   0.92268   1.000
    Zr7     Zr   0.00010   0.49948   0.25616   1.000
    Zr8     Zr   0.50010   0.49955   0.58834   1.000
    Zr9     Zr   0.38954   0.77798   0.83374   1.000
    Zr10    Zr   0.38799   0.60985   0.49992   1.000
    Zr11    Zr   0.22218   0.60942   0.16746   1.000
    Zr12    Zr   0.61078   0.22099   0.83379   1.000
    Zr13    Zr   0.61201   0.38937   0.49981   1.000
    Zr14    Zr   0.77778   0.38946   0.16750   1.000
    N15     N    0.38097   0.19745   0.39201   1.000
    O16     O    0.22797   0.13150   0.37172   1.000
    O17     O    0.49152   0.29009   0.42418   1.000
    N18     N    0.61852   0.81570   0.94236   1.000
    O19     O    0.77180   0.90288   0.96277   1.000
    O20     O    0.50859   0.79838   0.90980   1.000
    N21     N    0.80198   0.61947   0.60811   1.000
    O22     O    0.71016   0.50917   0.57570   1.000
    O23     O    0.86802   0.77214   0.62817   1.000
    N24     N    0.19855   0.81588   0.72493   1.000
    O25     O    0.29104   0.79846   0.75759   1.000
    O26     O    0.13260   0.90319   0.70466   1.000
    N27     N    0.18190   0.37897   0.05927   1.000
    O28     O    0.20038   0.48940   0.09164   1.000
    O29     O    0.09481   0.22637   0.03938   1.000
    N30     N    0.81785   0.61976   0.05931   1.000
    O31     O    0.90495   0.77226   0.03942   1.000
    O32     O    0.79943   0.50937   0.09168   1.000
    N33     N    0.38143   0.18317   0.94238   1.000
    O34     O    0.49149   0.20055   0.90981   1.000
    O35     O    0.22816   0.09587   0.96276   1.000
    N36     N    0.61896   0.80174   0.39213   1.000
    O37     O    0.50842   0.70917   0.42429   1.000
    O38     O    0.77198   0.86754   0.37181   1.000
    N39     N    0.80179   0.18331   0.72494   1.000
    O40     O    0.86817   0.09596   0.70468   1.000
    O41     O    0.70932   0.20060   0.75761   1.000
    N42     N    0.18321   0.80149   0.27505   1.000
    O43     O    0.09610   0.86739   0.29529   1.000
    O44     O    0.20110   0.70882   0.24298   1.000
    N45     N    0.81686   0.19734   0.27510   1.000
    O46     O    0.90390   0.13137   0.29531   1.000
    O47     O    0.79898   0.29008   0.24302   1.000
    N48     N    0.19794   0.37936   0.60810   1.000
    O49     O    0.28982   0.48980   0.57574   1.000
    O50     O    0.13234   0.22668   0.62811   1.000
    O51     O    0.88173   0.31205   0.26553   1.000
    O52     O    0.11839   0.68685   0.26549   1.000
    O53     O    0.43112   0.11814   0.93242   1.000
    O54     O    0.56891   0.88079   0.93243   1.000
    O55     O    0.11756   0.42934   0.06923   1.000
    O56     O    0.88219   0.56939   0.06926   1.000
    O57     O    0.68753   0.56930   0.59814   1.000
    O58     O    0.31253   0.42964   0.59814   1.000
    O59     O    0.56908   0.68710   0.40171   1.000
    O60     O    0.43081   0.31218   0.40163   1.000
    O61     O    0.31307   0.88086   0.73499   1.000
    O62     O    0.68743   0.11819   0.73498   1.000
loop_
    _geom_bond_atom_site_label_1
    _geom_bond_atom_site_label_2
    _geom_bond_distance
    _geom_bond_site_symmetry_2
    _ccdc_geom_bond_type
    N15    O16       1.74035      .   S
    Zr1    O16       2.67337  1_665   S
    N15    O17       1.54644      .   S
    Zr13   O17       2.47085      .   S
    N18    O19       1.74479      .   S
    Zr2    O19       2.67887  1_554   S
    N18    O20       1.54671      .   S
    Zr9    O20       2.47169      .   S
    N21    O22       1.54621      .   S
    Zr13   O22       2.47121      .   S
    N21    O23       1.73764      .   S
    Zr0    O23       2.66915  1_455   S
    N24    O25       1.54756      .   S
    Zr9    O25       2.47301      .   S
    N24    O26       1.74299      .   S
    Zr0    O26       2.67491      .   S
    N27    O28       1.54627      .   S
    Zr11   O28       2.47054      .   S
    N27    O29       1.73621      .   S
    Zr2    O29       2.66361  1_665   S
    N30    O31       1.73555      .   S
    Zr2    O31       2.66260      .   S
    N30    O32       1.54651      .   S
    Zr14   O32       2.47090      .   S
    N33    O34       1.54746      .   S
    Zr12   O34       2.47185      .   S
    N33    O35       1.74467      .   S
    Zr2    O35       2.67971  1_664   S
    N36    O37       1.54614      .   S
    Zr10   O37       2.47070      .   S
    N36    O38       1.74083      .   S
    Zr1    O38       2.67380      .   S
    N39    O40       1.74719      .   S
    Zr0    O40       2.68049  1_465   S
    N39    O41       1.54630      .   S
    Zr12   O41       2.47279      .   S
    N42    O43       1.73926      .   S
    Zr1    O43       2.67139  1_655   S
    N42    O44       1.54445      .   S
    Zr11   O44       2.46795      .   S
    N45    O46       1.73929      .   S
    Zr1    O46       2.67191  1_565   S
    N45    O47       1.54571      .   S
    Zr14   O47       2.46920      .   S
    N48    O49       1.54663      .   S
    Zr10   O49       2.47142      .   S
    N48    O50       1.73810      .   S
    Zr0    O50       2.66977  1_565   S
    Zr7    O51       2.05973  1_455   S
    N45    O51       1.26720      .   S
    Zr7    O52       2.05886      .   S
    N42    O52       1.26626      .   S
    Zr6    O53       2.05895  1_565   S
    N33    O53       1.26686      .   S
    Zr6    O54       2.05915      .   S
    N18    O54       1.26681      .   S
    Zr5    O55       2.05752  1_655   S
    N27    O55       1.26577      .   S
    Zr5    O56       2.05751      .   S
    N30    O56       1.26584      .   S
    Zr8    O57       2.05549      .   S
    N21    O57       1.26385      .   S
    Zr8    O58       2.05677      .   S
    N48    O58       1.26507      .   S
    Zr4    O59       2.05908      .   S
    N36    O59       1.26640      .   S
    Zr4    O60       2.06027      .   S
    N15    O60       1.26750      .   S
    Zr3    O61       2.05754      .   S
    N24    O61       1.26614      .   S
    Zr3    O62       2.05603  1_565   S
    N39    O62       1.26438      .   S
