# CIF file generated by openbabel 2.4.90, see http://openbabel.sf.net
data_I
_chemical_name_common ''
_cell_length_a 12.416
_cell_length_b 12.439
_cell_length_c 27.049
_cell_angle_alpha 90.02
_cell_angle_beta 89.986
_cell_angle_gamma 119.911
_space_group_name_H-M_alt 'P 1'
_space_group_name_Hall 'P 1'
loop_
    _symmetry_equiv_pos_as_xyz
    x,y,z
loop_
    _atom_site_label
    _atom_site_type_symbol
    _atom_site_fract_x
    _atom_site_fract_y
    _atom_site_fract_z
    _atom_site_occupancy
    Zr0     Zr   0.00051   0.99939   0.66634   1.000
    Zr1     Zr   0.99997   0.99935   0.33345   1.000
    Zr2     Zr   0.99992   0.99923   0.00159   1.000
    Zr3     Zr   0.50035   0.99944   0.74488   1.000
    Zr4     Zr   0.49991   0.49968   0.41106   1.000
    Zr5     Zr   0.99987   0.49937   0.07904   1.000
    Zr6     Zr   0.50006   0.99950   0.92268   1.000
    Zr7     Zr   0.00010   0.49948   0.25616   1.000
    Zr8     Zr   0.50010   0.49955   0.58834   1.000
    Zr9     Zr   0.38954   0.77798   0.83374   1.000
    Zr10    Zr   0.38799   0.60985   0.49992   1.000
    Zr11    Zr   0.22218   0.60942   0.16746   1.000
    Zr12    Zr   0.61078   0.22099   0.83379   1.000
    Zr13    Zr   0.61201   0.38937   0.49981   1.000
    Zr14    Zr   0.77778   0.38946   0.16750   1.000
    N15     N    0.38097   0.19745   0.39201   1.000
    O16     O    0.22797   0.13150   0.37172   1.000
    O17     O    0.39812   0.30670   0.40127   1.000
    O18     O    0.49152   0.29009   0.42418   1.000
    O19     O    0.46349   0.31767   0.40199   1.000
    N20     N    0.61852   0.81570   0.94236   1.000
    O21     O    0.60160   0.90782   0.93282   1.000
    O22     O    0.77180   0.90288   0.96277   1.000
    O23     O    0.53622   0.85376   0.93204   1.000
    O24     O    0.50859   0.79838   0.90980   1.000
    N25     N    0.80198   0.61947   0.60811   1.000
    O26     O    0.69287   0.60189   0.59846   1.000
    O27     O    0.71016   0.50917   0.57570   1.000
    O28     O    0.68218   0.53671   0.59783   1.000
    O29     O    0.86802   0.77214   0.62817   1.000
    N30     N    0.19855   0.81588   0.72493   1.000
    O31     O    0.31875   0.85382   0.73537   1.000
    O32     O    0.29104   0.79846   0.75759   1.000
    O33     O    0.30740   0.90791   0.73461   1.000
    O34     O    0.13260   0.90319   0.70466   1.000
    N35     N    0.18190   0.37897   0.05927   1.000
    O36     O    0.20038   0.48940   0.09164   1.000
    O37     O    0.14480   0.46189   0.06953   1.000
    O38     O    0.09481   0.22637   0.03938   1.000
    O39     O    0.09032   0.39678   0.06893   1.000
    N40     N    0.81785   0.61976   0.05931   1.000
    O41     O    0.90495   0.77226   0.03942   1.000
    O42     O    0.90943   0.60194   0.06896   1.000
    O43     O    0.79943   0.50937   0.09168   1.000
    O44     O    0.85495   0.53684   0.06956   1.000
    N45     N    0.38143   0.18317   0.94238   1.000
    O46     O    0.46381   0.14518   0.93203   1.000
    O47     O    0.49149   0.20055   0.90981   1.000
    O48     O    0.39844   0.09110   0.93281   1.000
    O49     O    0.22816   0.09587   0.96276   1.000
    N50     N    0.61896   0.80174   0.39213   1.000
    O51     O    0.53640   0.68163   0.40208   1.000
    O52     O    0.50842   0.70917   0.42429   1.000
    O53     O    0.60176   0.69257   0.40134   1.000
    O54     O    0.77198   0.86754   0.37181   1.000
    N55     N    0.80179   0.18331   0.72494   1.000
    O56     O    0.86817   0.09596   0.70468   1.000
    O57     O    0.68171   0.14521   0.73539   1.000
    O58     O    0.70932   0.20060   0.75761   1.000
    O59     O    0.69315   0.09118   0.73456   1.000
    N60     N    0.18321   0.80149   0.27505   1.000
    O61     O    0.09121   0.69236   0.26583   1.000
    O62     O    0.09610   0.86739   0.29529   1.000
    O63     O    0.14558   0.68133   0.26516   1.000
    O64     O    0.20110   0.70882   0.24298   1.000
    N65     N    0.81686   0.19734   0.27510   1.000
    O66     O    0.90891   0.30652   0.26587   1.000
    O67     O    0.90390   0.13137   0.29531   1.000
    O68     O    0.79898   0.29008   0.24302   1.000
    O69     O    0.85456   0.31759   0.26519   1.000
    N70     N    0.19794   0.37936   0.60810   1.000
    O71     O    0.30721   0.39707   0.59844   1.000
    O72     O    0.31785   0.46222   0.59785   1.000
    O73     O    0.28982   0.48980   0.57574   1.000
    O74     O    0.13234   0.22668   0.62811   1.000
loop_
    _geom_bond_atom_site_label_1
    _geom_bond_atom_site_label_2
    _geom_bond_distance
    _geom_bond_site_symmetry_2
    _ccdc_geom_bond_type
    N15    O16       1.74035      .   S
    Zr1    O16       2.67337  1_665   S
    N15    O17       1.29076      .   S
    Zr4    O17       2.09855      .   S
    N15    O18       1.54644      .   S
    Zr13   O18       2.47085      .   S
    N15    O19       1.35306      .   S
    Zr4    O19       2.09027      .   S
    N20    O21       1.29003      .   S
    Zr6    O21       2.09749      .   S
    N20    O22       1.74479      .   S
    Zr2    O22       2.67887  1_554   S
    N20    O23       1.35242      .   S
    Zr6    O23       2.08910      .   S
    N20    O24       1.54671      .   S
    Zr9    O24       2.47169      .   S
    N25    O26       1.28685      .   S
    Zr8    O26       2.09418      .   S
    N25    O27       1.54621      .   S
    Zr13   O27       2.47121      .   S
    N25    O28       1.35003      .   S
    Zr8    O28       2.08529      .   S
    N25    O29       1.73764      .   S
    Zr0    O29       2.66915  1_455   S
    N30    O31       1.35181      .   S
    Zr3    O31       2.08759      .   S
    N30    O32       1.54756      .   S
    Zr9    O32       2.47301      .   S
    N30    O33       1.28941      .   S
    Zr3    O33       2.09585      .   S
    N30    O34       1.74299      .   S
    Zr0    O34       2.67491      .   S
    N35    O36       1.54627      .   S
    Zr11   O36       2.47054      .   S
    N35    O37       1.35153      .   S
    Zr5    O37       2.08750  1_655   S
    N35    O38       1.73621      .   S
    Zr2    O38       2.66361  1_665   S
    N35    O39       1.28894      .   S
    Zr5    O39       2.09590  1_655   S
    N40    O41       1.73555      .   S
    Zr2    O41       2.66260      .   S
    N40    O42       1.28901      .   S
    Zr5    O42       2.09588      .   S
    N40    O43       1.54651      .   S
    Zr14   O43       2.47090      .   S
    N40    O44       1.35159      .   S
    Zr5    O44       2.08749      .   S
    N45    O46       1.35255      .   S
    Zr6    O46       2.08887  1_565   S
    N45    O47       1.54746      .   S
    Zr12   O47       2.47185      .   S
    N45    O48       1.28999      .   S
    Zr6    O48       2.09733  1_565   S
    N45    O49       1.74467      .   S
    Zr2    O49       2.67971  1_664   S
    N50    O51       1.35214      .   S
    Zr4    O51       2.08904      .   S
    N50    O52       1.54614      .   S
    Zr10   O52       2.47070      .   S
    N50    O53       1.28954      .   S
    Zr4    O53       2.09743      .   S
    N50    O54       1.74083      .   S
    Zr1    O54       2.67380      .   S
    N55    O56       1.74719      .   S
    Zr0    O56       2.68049  1_465   S
    N55    O57       1.34992      .   S
    Zr3    O57       2.08622  1_565   S
    N55    O58       1.54630      .   S
    Zr12   O58       2.47279      .   S
    N55    O59       1.28797      .   S
    Zr3    O59       2.09428  1_565   S
    N60    O61       1.28964      .   S
    Zr7    O61       2.09704      .   S
    N60    O62       1.73926      .   S
    Zr1    O62       2.67139  1_655   S
    N60    O63       1.35177      .   S
    Zr7    O63       2.08899      .   S
    N60    O64       1.54445      .   S
    Zr11   O64       2.46795      .   S
    N65    O66       1.29036      .   S
    Zr7    O66       2.09807  1_455   S
    N65    O67       1.73929      .   S
    Zr1    O67       2.67191  1_565   S
    N65    O68       1.54571      .   S
    Zr14   O68       2.46920      .   S
    N65    O69       1.35286      .   S
    Zr7    O69       2.08968  1_455   S
    N70    O71       1.28815      .   S
    Zr8    O71       2.09532      .   S
    N70    O72       1.35105      .   S
    Zr8    O72       2.08665      .   S
    N70    O73       1.54663      .   S
    Zr10   O73       2.47142      .   S
    N70    O74       1.73810      .   S
    Zr0    O74       2.66977  1_565   S
