# CIF file generated by openbabel 2.4.90, see http://openbabel.sf.net
data_I
_chemical_name_common ''
_cell_length_a 5.945
_cell_length_b 7.474
_cell_length_c 15.5861
_cell_angle_alpha 89.787
_cell_angle_beta 86.3205
_cell_angle_gamma 89.557
_space_group_name_H-M_alt 'P 1'
_space_group_name_Hall 'P 1'
loop_
    _symmetry_equiv_pos_as_xyz
    x,y,z
loop_
    _atom_site_label
    _atom_site_type_symbol
    _atom_site_fract_x
    _atom_site_fract_y
    _atom_site_fract_z
    _atom_site_occupancy
    H0      H    0.93323   0.18567   0.47878   1.000
    H1      H    0.56931   0.18562   0.02333   1.000
    H2      H    0.43064   0.82999   0.97670   1.000
    H3      H    0.06671   0.82995   0.52126   1.000
    C4      C    0.96141   0.32767   0.48843   1.000
    C5      C    0.54001   0.32768   0.01277   1.000
    C6      C    0.54497   0.39462   0.92881   1.000
    C7      C    0.00680   0.43578   0.41591   1.000
    C8      C    0.50506   0.57853   0.91536   1.000
    C9      C    0.04529   0.61953   0.42817   1.000
    C10     C    0.52593   0.66850   0.82829   1.000
    C11     C    0.08463   0.75323   0.35681   1.000
    C12     C    0.58423   0.25953   0.85832   1.000
    C13     C    0.02855   0.34537   0.32932   1.000
    C14     C    0.45993   0.68793   0.98727   1.000
    C15     C    0.03853   0.68794   0.51160   1.000
    C16     C    0.99315   0.57983   0.58413   1.000
    C17     C    0.45497   0.62099   0.07123   1.000
    C18     C    0.95465   0.39609   0.57187   1.000
    C19     C    0.49488   0.43709   0.08468   1.000
    C20     C    0.91532   0.26239   0.64322   1.000
    C21     C    0.47402   0.34712   0.17175   1.000
    C22     C    0.97139   0.67024   0.67071   1.000
    C23     C    0.41572   0.75608   0.14172   1.000
    O24     O    0.77291   0.17994   0.84980   1.000
    O25     O    0.09135   0.18281   0.33196   1.000
    O26     O    0.41946   0.21838   0.81283   1.000
    O27     O    0.98936   0.42879   0.26019   1.000
    O28     O    0.58814   0.83034   0.83033   1.000
    O29     O    0.27401   0.82933   0.34748   1.000
    O30     O    0.48664   0.58577   0.75941   1.000
    O31     O    0.91904   0.79699   0.31176   1.000
    O32     O    0.90859   0.83280   0.66808   1.000
    O33     O    0.22703   0.83568   0.15024   1.000
    O34     O    0.01060   0.58683   0.73984   1.000
    O35     O    0.58049   0.79724   0.18720   1.000
    O36     O    0.72594   0.18628   0.65256   1.000
    O37     O    0.41181   0.18528   0.16970   1.000
    O38     O    0.08091   0.21863   0.68827   1.000
    O39     O    0.51332   0.42985   0.24063   1.000
loop_
    _geom_bond_atom_site_label_1
    _geom_bond_atom_site_label_2
    _geom_bond_distance
    _geom_bond_site_symmetry_2
    _ccdc_geom_bond_type
    C5     H1        1.08826      .   S
    C5     C19       1.40061      .   S
    C5     C6        1.39790  1_554   S
    C17    C19       1.41022      .   S
    C17    C23       1.50091      .   S
    C17    C14       1.39788  1_554   S
    C19    C21       1.51057      .   S
    C23    O33       1.26529      .   S
    C23    O35       1.28530      .   S
    O37    C21       1.26871      .   S
    C21    O39       1.27626      .   S
    O27    C13       1.27634  1_655   S
    O31    C11       1.28498  1_655   S
    C13    O25       1.26959      .   S
    C13    C7        1.50915      .   S
    O29    C11       1.26513      .   S
    C11    C9        1.50067      .   S
    C7     C9        1.40973      .   S
    C7     C4        1.40029  1_455   S
    C9     C15       1.39719      .   S
    H0     C4        1.08826      .   S
    C4     C18       1.39720      .   S
    C15    H3        1.08827      .   S
    C15    C16       1.40029  1_455   S
    C18    C16       1.40971      .   S
    C18    C20       1.50068      .   S
    C16    C22       1.50915      .   S
    C20    O36       1.26512      .   S
    C20    O38       1.28499  1_655   S
    O32    C22       1.26959      .   S
    C22    O34       1.27633  1_655   S
    O30    C10       1.27625      .   S
    O26    C12       1.28530      .   S
    C10    O28       1.26872      .   S
    C10    C8        1.51057      .   S
    O24    C12       1.26530      .   S
    C12    C6        1.50090      .   S
    C8     C6        1.41022      .   S
    C8     C14       1.40061      .   S
    H2     C14       1.08825      .   S
