# CIF file generated by openbabel 2.4.90, see http://openbabel.sf.net
data_I
_chemical_name_common ''
_cell_length_a 5.945
_cell_length_b 7.474
_cell_length_c 15.5861
_cell_angle_alpha 89.787
_cell_angle_beta 86.3205
_cell_angle_gamma 89.557
_space_group_name_H-M_alt 'P 1'
_space_group_name_Hall 'P 1'
loop_
    _symmetry_equiv_pos_as_xyz
    x,y,z
loop_
    _atom_site_label
    _atom_site_type_symbol
    _atom_site_fract_x
    _atom_site_fract_y
    _atom_site_fract_z
    _atom_site_occupancy
    Zn0     Zn   0.25069   0.01549   0.24982   1.000
    Zn1     Zn   0.25001   0.39880   0.74992   1.000
    Zn2     Zn   0.74998   0.61682   0.25011   1.000
    H3      H    0.93323   0.18567   0.47878   1.000
    H4      H    0.56931   0.18562   0.02333   1.000
    H5      H    0.43064   0.82999   0.97670   1.000
    H6      H    0.06671   0.82995   0.52126   1.000
    C7      C    0.96141   0.32767   0.48843   1.000
    C8      C    0.54001   0.32768   0.01277   1.000
    C9      C    0.54497   0.39462   0.92881   1.000
    C10     C    0.00680   0.43578   0.41591   1.000
    C11     C    0.50506   0.57853   0.91536   1.000
    C12     C    0.04529   0.61953   0.42817   1.000
    C13     C    0.52593   0.66850   0.82829   1.000
    C14     C    0.08463   0.75323   0.35681   1.000
    C15     C    0.58423   0.25953   0.85832   1.000
    C16     C    0.02855   0.34537   0.32932   1.000
    C17     C    0.45993   0.68793   0.98727   1.000
    C18     C    0.03853   0.68794   0.51160   1.000
    C19     C    0.99315   0.57983   0.58413   1.000
    C20     C    0.45497   0.62099   0.07123   1.000
    C21     C    0.95465   0.39609   0.57187   1.000
    C22     C    0.49488   0.43709   0.08468   1.000
    C23     C    0.91532   0.26239   0.64322   1.000
    C24     C    0.47402   0.34712   0.17175   1.000
    C25     C    0.97139   0.67024   0.67071   1.000
    C26     C    0.41572   0.75608   0.14172   1.000
    O27     O    0.77291   0.17994   0.84980   1.000
    O28     O    0.09135   0.18281   0.33196   1.000
    O29     O    0.41946   0.21838   0.81283   1.000
    O30     O    0.98936   0.42879   0.26019   1.000
    O31     O    0.58814   0.83034   0.83033   1.000
    Zn32    Zn   0.74925   0.00013   0.75021   1.000
    O33     O    0.27401   0.82933   0.34748   1.000
    O34     O    0.48664   0.58577   0.75941   1.000
    O35     O    0.91904   0.79699   0.31176   1.000
    O36     O    0.90859   0.83280   0.66808   1.000
    O37     O    0.22703   0.83568   0.15024   1.000
    O38     O    0.01060   0.58683   0.73984   1.000
    O39     O    0.58049   0.79724   0.18720   1.000
    O40     O    0.72594   0.18628   0.65256   1.000
    O41     O    0.41181   0.18528   0.16970   1.000
    O42     O    0.08091   0.21863   0.68827   1.000
    O43     O    0.51332   0.42985   0.24063   1.000
loop_
    _geom_bond_atom_site_label_1
    _geom_bond_atom_site_label_2
    _geom_bond_distance
    _geom_bond_site_symmetry_2
    _ccdc_geom_bond_type
    C8     H4        1.08826      .   S
    C8     C22       1.40061      .   S
    C8     C9        1.39790  1_554   S
    C20    C22       1.41022      .   S
    C20    C26       1.50091      .   S
    C20    C17       1.39788  1_554   S
    C22    C24       1.51057      .   S
    C26    O37       1.26529      .   S
    C26    O39       1.28530      .   S
    O37    Zn0       2.06912  1_565   S
    O41    C24       1.26871      .   S
    O41    Zn0       1.98510      .   S
    C24    O43       1.27626      .   S
    O39    Zn2       1.97255      .   S
    O43    Zn2       2.00317      .   S
    Zn0    O28       1.98447      .   S
    Zn0    O33       2.06884  1_545   S
    Zn2    O30       2.00526      .   S
    Zn2    O35       1.97519      .   S
    O30    C16       1.27634  1_655   S
    O35    C14       1.28498  1_655   S
    C16    O28       1.26959      .   S
    C16    C10       1.50915      .   S
    O33    C14       1.26513      .   S
    C14    C12       1.50067      .   S
    C10    C12       1.40973      .   S
    C10    C7        1.40029  1_455   S
    C12    C18       1.39719      .   S
    H3     C7        1.08826      .   S
    C7     C21       1.39720      .   S
    C18    H6        1.08827      .   S
    C18    C19       1.40029  1_455   S
    C21    C19       1.40971      .   S
    C21    C23       1.50068      .   S
    C19    C25       1.50915      .   S
    C23    O40       1.26512      .   S
    C23    O42       1.28499  1_655   S
    O40    Zn32      2.06884      .   S
    O36    C25       1.26959      .   S
    O36    Zn32      1.98445  1_565   S
    C25    O38       1.27633  1_655   S
    O42    Zn1       1.97529      .   S
    O38    Zn1       2.00536      .   S
    Zn1    O34       2.00306      .   S
    Zn1    O29       1.97247      .   S
    Zn32   O31       1.98514  1_545   S
    Zn32   O27       2.06912      .   S
    O34    C13       1.27625      .   S
    O29    C15       1.28530      .   S
    C13    O31       1.26872      .   S
    C13    C11       1.51057      .   S
    O27    C15       1.26530      .   S
    C15    C9        1.50090      .   S
    C11    C9        1.41022      .   S
    C11    C17       1.40061      .   S
    H5     C17       1.08825      .   S
