# CIF file generated by openbabel 2.4.90, see http://openbabel.sf.net
data_I
_chemical_name_common ''
_cell_length_a 15.084
_cell_length_b 12.455
_cell_length_c 25.541
_cell_angle_alpha 70.801
_cell_angle_beta 81.473
_cell_angle_gamma 72.345
_space_group_name_H-M_alt 'P 1'
_space_group_name_Hall 'P 1'
loop_
    _symmetry_equiv_pos_as_xyz
    x,y,z
loop_
    _atom_site_label
    _atom_site_type_symbol
    _atom_site_fract_x
    _atom_site_fract_y
    _atom_site_fract_z
    _atom_site_occupancy
    H0      H    0.20630   0.97149   0.84600   1.000
    H1      H    0.70633   0.97144   0.84608   1.000
    H2      H    0.30435   0.05478   0.76635   1.000
    H3      H    0.80437   0.05477   0.76634   1.000
    H4      H    0.06592   0.19749   0.66460   1.000
    H5      H    0.56595   0.19738   0.66465   1.000
    H6      H    0.46893   0.11369   0.74600   1.000
    H7      H    0.96888   0.11383   0.74601   1.000
    H8      H    0.37804   0.04380   0.68492   1.000
    H9      H    0.87808   0.04379   0.68490   1.000
    H10     H    0.47836   0.14255   0.61074   1.000
    H11     H    0.97838   0.14257   0.61074   1.000
    H12     H    0.24031   0.43575   0.55242   1.000
    H13     H    0.74030   0.43575   0.55243   1.000
    H14     H    0.13959   0.33760   0.62488   1.000
    H15     H    0.63960   0.33755   0.62487   1.000
    H16     H    0.35493   0.87447   0.89662   1.000
    H17     H    0.85483   0.87458   0.89660   1.000
    H18     H    0.27258   0.72542   0.89857   1.000
    H19     H    0.77248   0.72553   0.89856   1.000
    H20     H    0.40514   0.50483   0.05120   1.000
    H21     H    0.90515   0.50484   0.05119   1.000
    H22     H    0.47655   0.66530   0.04467   1.000
    H23     H    0.97654   0.66532   0.04463   1.000
    H24     H    0.34315   0.41938   0.98423   1.000
    H25     H    0.84313   0.41946   0.98410   1.000
    H26     H    0.26302   0.52372   0.93573   1.000
    H27     H    0.76292   0.52385   0.93500   1.000
    H28     H    0.11489   0.53072   0.65201   1.000
    H29     H    0.61487   0.53073   0.65198   1.000
    H30     H    0.21469   0.44744   0.73171   1.000
    H31     H    0.71466   0.44744   0.73169   1.000
    H32     H    0.49670   0.30477   0.83344   1.000
    H33     H    0.99671   0.30486   0.83349   1.000
    H34     H    0.39858   0.38828   0.75211   1.000
    H35     H    0.89858   0.38839   0.75218   1.000
    H36     H    0.24238   0.45803   0.81321   1.000
    H37     H    0.74230   0.45804   0.81318   1.000
    H38     H    0.35506   0.35887   0.88729   1.000
    H39     H    0.85495   0.35893   0.88728   1.000
    H40     H    0.23431   0.06592   0.94547   1.000
    H41     H    0.73425   0.06594   0.94546   1.000
    H42     H    0.12064   0.16447   0.87314   1.000
    H43     H    0.62062   0.16444   0.87311   1.000
    H44     H    0.24062   0.62610   0.60131   1.000
    H45     H    0.74066   0.62628   0.60139   1.000
    H46     H    0.08448   0.77493   0.59951   1.000
    H47     H    0.58455   0.77515   0.59957   1.000
    H48     H    0.18317   0.99656   0.44718   1.000
    H49     H    0.68317   0.99651   0.44713   1.000
    H50     H    0.33171   0.83621   0.45355   1.000
    H51     H    0.83169   0.83614   0.45352   1.000
    H52     H    0.04476   0.08127   0.51447   1.000
    H53     H    0.54481   0.08137   0.51444   1.000
    H54     H    0.49229   0.97670   0.56240   1.000
    H55     H    0.99226   0.97656   0.56248   1.000
    H56     H    0.29409   0.03023   0.15182   1.000
    H57     H    0.79408   0.03022   0.15183   1.000
    H58     H    0.19607   0.94680   0.23154   1.000
    H59     H    0.69607   0.94679   0.23155   1.000
    H60     H    0.43445   0.80427   0.33325   1.000
    H61     H    0.93445   0.80428   0.33326   1.000
    H62     H    0.03149   0.88790   0.25191   1.000
    H63     H    0.53150   0.88789   0.25190   1.000
    H64     H    0.12232   0.95779   0.31298   1.000
    H65     H    0.62232   0.95779   0.31299   1.000
    H66     H    0.02201   0.85907   0.38717   1.000
    H67     H    0.52201   0.85905   0.38717   1.000
    H68     H    0.26007   0.56592   0.44552   1.000
    H69     H    0.76006   0.56589   0.44552   1.000
    H70     H    0.36079   0.66406   0.37307   1.000
    H71     H    0.86079   0.66405   0.37307   1.000
    H72     H    0.14591   0.12626   0.10110   1.000
    H73     H    0.64606   0.12616   0.10110   1.000
    H74     H    0.22828   0.27520   0.09931   1.000
    H75     H    0.72842   0.27511   0.09928   1.000
    H76     H    0.09526   0.49653   0.94680   1.000
    H77     H    0.59522   0.49652   0.94691   1.000
    H78     H    0.02390   0.33611   0.95328   1.000
    H79     H    0.52389   0.33607   0.95331   1.000
    H80     H    0.15751   0.58155   0.01388   1.000
    H81     H    0.65752   0.58150   0.01392   1.000
    H82     H    0.23763   0.47709   0.06237   1.000
    H83     H    0.73772   0.47702   0.06236   1.000
    H84     H    0.38522   0.47071   0.34601   1.000
    H85     H    0.88525   0.47070   0.34603   1.000
    H86     H    0.28540   0.55404   0.26630   1.000
    H87     H    0.78543   0.55399   0.26630   1.000
    H88     H    0.00338   0.69668   0.16450   1.000
    H89     H    0.50337   0.69670   0.16455   1.000
    H90     H    0.10154   0.61309   0.24587   1.000
    H91     H    0.60153   0.61308   0.24586   1.000
    C92     C    0.53093   0.99547   0.52198   1.000
    C93     C    0.41879   0.96631   0.19674   1.000
    H94     H    0.25787   0.54324   0.18483   1.000
    H95     H    0.75790   0.54318   0.18486   1.000
    H96     H    0.14524   0.64221   0.11072   1.000
    H97     H    0.64528   0.64212   0.11070   1.000
    H98     H    0.26588   0.93527   0.05247   1.000
    H99     H    0.76590   0.93521   0.05248   1.000
    H100    H    0.37945   0.83691   0.12486   1.000
    H101    H    0.87946   0.83687   0.12489   1.000
    H102    H    0.25978   0.37524   0.39667   1.000
    H103    H    0.75972   0.37511   0.39662   1.000
    H104    H    0.41594   0.22646   0.39859   1.000
    H105    H    0.91587   0.22630   0.39854   1.000
    H106    H    0.31717   0.00513   0.55099   1.000
    H107    H    0.81717   0.00514   0.55102   1.000
    H108    H    0.16860   0.16545   0.54450   1.000
    H109    H    0.66861   0.16547   0.54450   1.000
    H110    H    0.45563   0.92024   0.48371   1.000
    H111    H    0.95559   0.92017   0.48370   1.000
    H112    H    0.00811   0.02485   0.43571   1.000
    H113    H    0.50814   0.02493   0.43570   1.000
    C114    C    0.08161   0.03543   0.80116   1.000
    C115    C    0.58165   0.03533   0.80115   1.000
    C116    C    0.17670   0.00000   0.80580   1.000
    C117    C    0.67674   0.00000   0.80579   1.000
    C118    C    0.23174   0.06520   0.76046   1.000
    C119    C    0.73177   0.06516   0.76045   1.000
    C120    C    0.25990   0.62929   0.15586   1.000
    C121    C    0.75992   0.62923   0.15589   1.000
    C122    C    0.19675   0.68427   0.11428   1.000
    C123    C    0.69678   0.68419   0.11430   1.000
    C124    C    0.19651   0.79641   0.07740   1.000
    C125    C    0.19314   0.13054   0.70866   1.000
    C126    C    0.69318   0.13047   0.70865   1.000
    C127    C    0.09772   0.14667   0.70417   1.000
    C128    C    0.59775   0.14657   0.70416   1.000
    C129    C    0.04293   0.09951   0.74959   1.000
    C130    C    0.54297   0.09940   0.74958   1.000
    C131    C    0.25137   0.18417   0.66147   1.000
    C132    C    0.75139   0.18413   0.66146   1.000
    C133    C    0.34751   0.12983   0.65590   1.000
    C134    C    0.84754   0.12981   0.65591   1.000
    C135    C    0.40402   0.18469   0.61431   1.000
    C136    C    0.90404   0.18470   0.61430   1.000
    C137    C    0.36662   0.29682   0.57745   1.000
    C138    C    0.86663   0.29683   0.57745   1.000
    C139    C    0.27047   0.34973   0.58138   1.000
    C140    C    0.77048   0.34972   0.58138   1.000
    C141    C    0.21363   0.29331   0.62210   1.000
    C142    C    0.71364   0.29327   0.62211   1.000
    C143    C    0.36171   0.79193   0.93039   1.000
    C144    C    0.86163   0.79202   0.93030   1.000
    C145    C    0.31804   0.70752   0.93160   1.000
    C146    C    0.81797   0.70761   0.93164   1.000
    C147    C    0.33364   0.60047   0.97458   1.000
    C148    C    0.83359   0.60054   0.97455   1.000
    C149    C    0.39100   0.58558   0.01635   1.000
    C150    C    0.89099   0.58562   0.01631   1.000
    C151    C    0.43150   0.67390   0.01309   1.000
    C152    C    0.93148   0.67394   0.01306   1.000
    C153    C    0.29018   0.50540   0.97632   1.000
    C154    C    0.79014   0.50547   0.97628   1.000
    C155    C    0.49969   0.46671   0.69692   1.000
    C156    C    0.99969   0.46676   0.69696   1.000
    C157    C    0.08871   0.48355   0.69232   1.000
    C158    C    0.58870   0.48353   0.69228   1.000
    C159    C    0.14433   0.43705   0.73760   1.000
    C160    C    0.64430   0.43703   0.73760   1.000
    C161    C    0.11252   0.37170   0.78945   1.000
    C162    C    0.61249   0.37165   0.78942   1.000
    C163    C    0.02288   0.35565   0.79398   1.000
    C164    C    0.52286   0.35558   0.79393   1.000
    C165    C    0.46724   0.40267   0.74850   1.000
    C166    C    0.96724   0.40275   0.74857   1.000
    C167    C    0.17402   0.31787   0.83661   1.000
    C168    C    0.67398   0.31785   0.83658   1.000
    C169    C    0.24032   0.37198   0.84216   1.000
    C170    C    0.74025   0.37198   0.84210   1.000
    C171    C    0.30351   0.31689   0.88372   1.000
    C172    C    0.80342   0.31693   0.88371   1.000
    C173    C    0.30373   0.20472   0.92054   1.000
    C174    C    0.80365   0.20477   0.92053   1.000
    C175    C    0.23594   0.15200   0.91658   1.000
    C176    C    0.73589   0.15202   0.91656   1.000
    C177    C    0.17121   0.20864   0.87589   1.000
    C178    C    0.67117   0.20863   0.87587   1.000
    C179    C    0.22295   0.70878   0.56763   1.000
    C180    C    0.72299   0.70891   0.56768   1.000
    C181    C    0.13760   0.79310   0.56647   1.000
    C182    C    0.63765   0.79325   0.56651   1.000
    C183    C    0.12110   0.90035   0.52367   1.000
    C184    C    0.62113   0.90044   0.52367   1.000
    C185    C    0.19200   0.91560   0.48196   1.000
    C186    C    0.69201   0.91561   0.48194   1.000
    C187    C    0.27511   0.82735   0.48511   1.000
    C188    C    0.77511   0.82734   0.48510   1.000
    C189    C    0.03090   0.99537   0.52199   1.000
    C190    C    0.91878   0.96631   0.19675   1.000
    C191    C    0.32370   0.98302   0.19211   1.000
    C192    C    0.82369   0.98301   0.19212   1.000
    C193    C    0.26867   0.93644   0.23740   1.000
    C194    C    0.76866   0.93644   0.23745   1.000
    C195    C    0.30724   0.87112   0.28925   1.000
    C196    C    0.80724   0.87112   0.28926   1.000
    C197    C    0.40266   0.85506   0.29374   1.000
    C198    C    0.90266   0.85506   0.29375   1.000
    C199    C    0.45745   0.90222   0.24832   1.000
    C200    C    0.95745   0.90223   0.24832   1.000
    C201    C    0.24902   0.81748   0.33645   1.000
    C202    C    0.74901   0.81747   0.33646   1.000
    C203    C    0.15286   0.87178   0.34198   1.000
    C204    C    0.65286   0.87177   0.34199   1.000
    C205    C    0.09635   0.81694   0.38360   1.000
    C206    C    0.59635   0.81692   0.38360   1.000
    C207    C    0.13375   0.70483   0.42048   1.000
    C208    C    0.63374   0.70481   0.42048   1.000
    C209    C    0.22990   0.65193   0.41655   1.000
    C210    C    0.72989   0.65190   0.41655   1.000
    C211    C    0.28674   0.70834   0.37581   1.000
    C212    C    0.78674   0.70832   0.37581   1.000
    C213    C    0.13906   0.20892   0.06743   1.000
    C214    C    0.63917   0.20884   0.06741   1.000
    C215    C    0.18270   0.29330   0.06626   1.000
    C216    C    0.68279   0.29323   0.06625   1.000
    C217    C    0.16701   0.40049   0.02343   1.000
    C218    C    0.66705   0.40045   0.02343   1.000
    C219    C    0.10948   0.41564   0.98169   1.000
    C220    C    0.60948   0.41561   0.98171   1.000
    C221    C    0.06903   0.32734   0.98485   1.000
    C222    C    0.56905   0.32729   0.98487   1.000
    C223    C    0.21046   0.49551   0.02177   1.000
    C224    C    0.71049   0.49548   0.02177   1.000
    C225    C    0.00045   0.53463   0.30106   1.000
    C226    C    0.50044   0.53462   0.30105   1.000
    C227    C    0.41139   0.51788   0.30570   1.000
    C228    C    0.91142   0.51787   0.30572   1.000
    C229    C    0.35576   0.56444   0.26039   1.000
    C230    C    0.85579   0.56440   0.26040   1.000
    C231    C    0.38760   0.62975   0.20850   1.000
    C232    C    0.88762   0.62972   0.20859   1.000
    C233    C    0.47721   0.64588   0.20406   1.000
    C234    C    0.97722   0.64586   0.20408   1.000
    C235    C    0.03288   0.59871   0.24947   1.000
    C236    C    0.53287   0.59870   0.24946   1.000
    C237    C    0.32613   0.68349   0.16141   1.000
    C238    C    0.82615   0.68345   0.16143   1.000
    C239    C    0.69654   0.79633   0.07745   1.000
    C240    C    0.26424   0.84922   0.08139   1.000
    C241    C    0.76426   0.84916   0.08140   1.000
    C242    C    0.32893   0.79269   0.12210   1.000
    C243    C    0.82894   0.79265   0.12212   1.000
    C244    C    0.27743   0.29263   0.43000   1.000
    C245    C    0.77738   0.29253   0.43030   1.000
    C246    C    0.36280   0.20834   0.43162   1.000
    C247    C    0.86275   0.20822   0.43159   1.000
    C248    C    0.37929   0.10117   0.47447   1.000
    C249    C    0.87925   0.10110   0.47447   1.000
    C250    C    0.30836   0.08602   0.51610   1.000
    C251    C    0.80834   0.08600   0.51618   1.000
    C252    C    0.22523   0.17425   0.51295   1.000
    C253    C    0.72522   0.17424   0.51296   1.000
    C254    C    0.46949   0.00614   0.47618   1.000
    C255    C    0.96946   0.00606   0.47619   1.000
    N256    N    0.41851   0.77508   0.97000   1.000
    N257    N    0.91845   0.77515   0.97028   1.000
    N258    N    0.29134   0.72594   0.52776   1.000
    N259    N    0.79136   0.72600   0.52778   1.000
    N260    N    0.08212   0.22600   0.02755   1.000
    N261    N    0.58220   0.22593   0.02756   1.000
    N262    N    0.20900   0.27556   0.47025   1.000
    N263    N    0.70898   0.27551   0.47024   1.000
loop_
    _geom_bond_atom_site_label_1
    _geom_bond_atom_site_label_2
    _geom_bond_distance
    _geom_bond_site_symmetry_2
    _ccdc_geom_bond_type
    C152   C150      1.38648      .   S
    C152   H23       1.08863      .   S
    C152   N257      1.35245  1_554   S
    C151   C149      1.38649      .   S
    C151   H22       1.08874      .   S
    C151   N256      1.35638  1_554   S
    H80    C223      1.10158      .   S
    H81    C224      1.10159      .   S
    C150   H21       1.08999      .   S
    C150   C148      1.40271  1_554   S
    C149   H20       1.08940      .   S
    C149   C147      1.40272  1_554   S
    C223   C217      1.50373      .   S
    C223   H82       1.09929      .   S
    C223   C153      1.54618  1_554   S
    C224   C218      1.50375      .   S
    C224   H83       1.09935      .   S
    C224   C154      1.54618  1_554   S
    C217   C215      1.39987      .   S
    C217   C219      1.40280  1_554   S
    C218   C216      1.39997      .   S
    C218   C220      1.40279  1_554   S
    N260   C213      1.35143      .   S
    N260   C221      1.35234  1_554   S
    N261   C214      1.35119      .   S
    N261   C222      1.35240  1_554   S
    H98    C240      1.08855      .   S
    H99    C241      1.08852      .   S
    C216   C214      1.38996      .   S
    C216   H75       1.09042      .   S
    C215   C213      1.38986      .   S
    C215   H74       1.09050      .   S
    C214   H73       1.09108      .   S
    C213   H72       1.09073      .   S
    C124   C240      1.40343      .   S
    C124   C122      1.40383      .   S
    C239   C241      1.40304      .   S
    C239   C123      1.40353      .   S
    C240   C242      1.38978      .   S
    C241   C243      1.38990      .   S
    H97    C123      1.08908      .   S
    H96    C122      1.08874      .   S
    C122   C120      1.38929      .   S
    C123   C121      1.38940      .   S
    C242   H100      1.08863      .   S
    C242   C237      1.40845      .   S
    C243   H101      1.08870      .   S
    C243   C238      1.40844      .   S
    H56    C191      1.08772  1_545   S
    H57    C192      1.08773  1_545   S
    C120   C237      1.40998      .   S
    C120   H94       1.09027      .   S
    C121   C238      1.40992      .   S
    C121   H95       1.09025      .   S
    C237   C231      1.47619      .   S
    C238   C232      1.47753      .   S
    H88    C234      1.09115  1_455   S
    H89    C233      1.08996      .   S
    C191   C93       1.40278      .   S
    C191   C193      1.38909      .   S
    C192   C190      1.40279      .   S
    C192   C194      1.38968      .   S
    C93    C199      1.40236      .   S
    C190   C200      1.40217      .   S
    C233   C231      1.40876      .   S
    C233   C236      1.39142      .   S
    C234   C232      1.40857      .   S
    C234   C235      1.39123  1_655   S
    C231   C229      1.40996      .   S
    C232   C230      1.40849      .   S
    H58    C193      1.09015      .   S
    H59    C194      1.09040      .   S
    C193   C195      1.40959      .   S
    C194   C196      1.40878      .   S
    H91    C236      1.08925      .   S
    H90    C235      1.08924      .   S
    C199   H63       1.08921      .   S
    C199   C197      1.39137      .   S
    C200   H62       1.08921  1_655   S
    C200   C198      1.39150      .   S
    C236   C226      1.40238      .   S
    C235   C225      1.40232      .   S
    C229   H86       1.09041      .   S
    C229   C227      1.38962      .   S
    C230   H87       1.09041      .   S
    C230   C228      1.38982      .   S
    C195   C197      1.40851      .   S
    C195   C201      1.47757      .   S
    C196   C198      1.40851      .   S
    C196   C202      1.47758      .   S
    C197   H60       1.09002      .   S
    C198   H61       1.09001      .   S
    C226   C227      1.40284      .   S
    C225   C228      1.40281  1_455   S
    C227   H84       1.08776      .   S
    C228   H85       1.08777      .   S
    H64    C203      1.09018      .   S
    H65    C204      1.09022      .   S
    C201   C203      1.40995      .   S
    C201   C211      1.40856      .   S
    C202   C204      1.40996      .   S
    C202   C212      1.40847      .   S
    C203   C205      1.38925      .   S
    C204   C206      1.38920      .   S
    H71    C212      1.08868      .   S
    H70    C211      1.08868      .   S
    C212   C210      1.38988      .   S
    C211   C209      1.38980      .   S
    C206   H67       1.08876      .   S
    C206   C208      1.40357      .   S
    C205   H66       1.08878      .   S
    C205   C207      1.40351      .   S
    H103   C245      1.09025      .   S
    H102   C244      1.08586      .   S
    H105   C247      1.09048      .   S
    H104   C246      1.09045      .   S
    C210   C208      1.40301      .   S
    C210   H69       1.08861      .   S
    C209   C207      1.40302      .   S
    C209   H68       1.08858      .   S
    C244   C246      1.38908      .   S
    C244   N262      1.35726      .   S
    C245   C247      1.38979      .   S
    C245   N263      1.35228      .   S
    C247   C249      1.39998      .   S
    C246   C248      1.39993      .   S
    H113   C254      1.09931      .   S
    H112   C255      1.09936  1_455   S
    H49    C186      1.09002      .   S
    H48    C185      1.09002      .   S
    H51    C188      1.08886      .   S
    H50    C187      1.08881      .   S
    N263   C253      1.35213      .   S
    N262   C252      1.35215      .   S
    C248   C254      1.50364      .   S
    C248   C250      1.40141      .   S
    C249   C255      1.50365      .   S
    C249   C251      1.40237      .   S
    C254   H110      1.10178  1_545   S
    C254   C92       1.54583  1_545   S
    C255   H111      1.10181  1_545   S
    C255   C189      1.54569  1_645   S
    C186   C188      1.38634      .   S
    C186   C184      1.40248      .   S
    C185   C187      1.38635      .   S
    C185   C183      1.40251      .   S
    C188   N259      1.35215      .   S
    C187   N258      1.35220      .   S
    C252   C250      1.38651      .   S
    C252   H108      1.08880      .   S
    C253   C251      1.38640      .   S
    C253   H109      1.08845      .   S
    H53    C92       1.10176  1_545   S
    H52    C189      1.10177  1_545   S
    C250   H106      1.09095      .   S
    C251   H107      1.09001      .   S
    C92    C184      1.50363      .   S
    C92    H54       1.09804      .   S
    C189   C183      1.50365      .   S
    C189   H55       1.09944  1_455   S
    C183   C181      1.39991      .   S
    C184   C182      1.39994      .   S
    N258   C179      1.35130      .   S
    N259   C180      1.35139      .   S
    H12    C139      1.08856      .   S
    H13    C140      1.08852      .   S
    C181   C179      1.38998      .   S
    C181   H46       1.09046      .   S
    C182   C180      1.38998      .   S
    C182   H47       1.09046      .   S
    C179   H44       1.09105      .   S
    C180   H45       1.09112      .   S
    C138   C140      1.40299      .   S
    C138   C136      1.40345      .   S
    C137   C139      1.40299      .   S
    C137   C135      1.40348      .   S
    C139   C141      1.38957      .   S
    C140   C142      1.38976      .   S
    H10    C135      1.08875      .   S
    H11    C136      1.08874      .   S
    C136   C134      1.38932      .   S
    C135   C133      1.38902      .   S
    C141   H14       1.08872      .   S
    C141   C131      1.40867      .   S
    C142   H15       1.08868      .   S
    C142   C132      1.40849      .   S
    H29    C158      1.08774      .   S
    H28    C157      1.08787      .   S
    C133   C131      1.40999      .   S
    C133   H8        1.09045      .   S
    C134   C132      1.40994      .   S
    C134   H9        1.09016      .   S
    C132   C126      1.47746      .   S
    C131   C125      1.47742      .   S
    H4     C127      1.09132      .   S
    H5     C128      1.09008      .   S
    C158   C155      1.40283      .   S
    C158   C160      1.38963      .   S
    C157   C156      1.40283  1_455   S
    C157   C159      1.38890      .   S
    C155   C165      1.40207      .   S
    C156   C166      1.40246      .   S
    C128   C126      1.40850      .   S
    C128   C130      1.39132      .   S
    C127   C125      1.40850      .   S
    C127   C129      1.39130      .   S
    C126   C119      1.40864      .   S
    C125   C118      1.40869      .   S
    H31    C160      1.09042      .   S
    H30    C159      1.09044      .   S
    C159   C161      1.40925      .   S
    C160   C162      1.40885      .   S
    H6     C130      1.08924      .   S
    H7     C129      1.08919  1_655   S
    C165   H34       1.08922      .   S
    C165   C164      1.39173      .   S
    C166   H35       1.08925      .   S
    C166   C163      1.39144  1_655   S
    C130   C115      1.40225      .   S
    C129   C114      1.40226      .   S
    C119   H3        1.09040      .   S
    C119   C117      1.48124      .   S
    C118   H2        1.09041      .   S
    C118   C116      1.48156      .   S
    C162   C164      1.40857      .   S
    C162   C168      1.47767      .   S
    C161   C163      1.40854      .   S
    C161   C167      1.47783      .   S
    C164   H32       1.08994      .   S
    C163   H33       1.08985  1_455   S
    C115   C117      1.37770      .   S
    C114   C116      1.37776      .   S
    C117   H1        1.08807  1_545   S
    C116   H0        1.08609  1_545   S
    H37    C170      1.08997      .   S
    H36    C169      1.09027      .   S
    C168   C170      1.40962      .   S
    C168   C178      1.40852      .   S
    C167   C169      1.40995      .   S
    C167   C177      1.40848      .   S
    C170   C172      1.39006      .   S
    C169   C171      1.38935      .   S
    H43    C178      1.08869      .   S
    H42    C177      1.08864      .   S
    C178   C176      1.38981      .   S
    C177   C175      1.39001      .   S
    C172   H39       1.08871      .   S
    C172   C174      1.40348      .   S
    C171   H38       1.08875      .   S
    C171   C173      1.40356      .   S
    H17    C144      1.09034      .   S
    H16    C143      1.09109      .   S
    H19    C146      1.09054      .   S
    H18    C145      1.08934      .   S
    C176   C174      1.40310      .   S
    C176   H41       1.08860      .   S
    C175   C173      1.40306      .   S
    C175   H40       1.08855      .   S
    C144   C146      1.38923      .   S
    C144   N257      1.35305      .   S
    C143   C145      1.39029      .   S
    C143   N256      1.34537      .   S
    C145   C147      1.40063      .   S
    C146   C148      1.39994      .   S
    H27    C154      1.11590      .   S
    H26    C153      1.09922      .   S
    H76    C219      1.09100      .   S
    H77    C220      1.08995      .   S
    H78    C221      1.08871      .   S
    H79    C222      1.08877      .   S
    C148   C154      1.50375      .   S
    C147   C153      1.50373      .   S
    C154   H25       1.10162      .   S
    C153   H24       1.10159      .   S
    C219   C221      1.38645      .   S
    C220   C222      1.38646      .   S
