# CIF file generated by openbabel 2.4.90, see http://openbabel.sf.net
data_I
_chemical_name_common ''
_cell_length_a 15.084
_cell_length_b 12.455
_cell_length_c 25.541
_cell_angle_alpha 70.801
_cell_angle_beta 81.473
_cell_angle_gamma 72.345
_space_group_name_H-M_alt 'P 1'
_space_group_name_Hall 'P 1'
loop_
    _symmetry_equiv_pos_as_xyz
    x,y,z
loop_
    _atom_site_label
    _atom_site_type_symbol
    _atom_site_fract_x
    _atom_site_fract_y
    _atom_site_fract_z
    _atom_site_occupancy
    Lv0     Lv   0.77742   0.84007   0.31099   1.000
    Lv1     Lv   0.64703   0.34040   0.81111   1.000
    Lv2     Lv   0.50020   0.00080   0.49903   1.000
    Lv3     Lv   0.00017   0.00072   0.49904   1.000
    Lv4     Lv   0.22296   0.16066   0.68692   1.000
    Lv5     Lv   0.25032   0.50050   0.99896   1.000
    Lv6     Lv   0.14707   0.34041   0.81114   1.000
    Lv7     Lv   0.75032   0.50051   0.99894   1.000
    Lv8     Lv   0.72299   0.16062   0.68692   1.000
    Lv9     Lv   0.27742   0.84007   0.31098   1.000
    Lv10    Lv   0.35308   0.66094   0.18686   1.000
    Lv11    Lv   0.85311   0.66090   0.18688   1.000
