# CIF file generated by openbabel 2.4.90, see http://openbabel.sf.net
data_I
_chemical_name_common ''
_cell_length_a 13.07
_cell_length_b 15.248
_cell_length_c 19.142
_cell_angle_alpha 89.984
_cell_angle_beta 89.996
_cell_angle_gamma 89.964
_space_group_name_H-M_alt 'P 1'
_space_group_name_Hall 'P 1'
loop_
    _symmetry_equiv_pos_as_xyz
    x,y,z
loop_
    _atom_site_label
    _atom_site_type_symbol
    _atom_site_fract_x
    _atom_site_fract_y
    _atom_site_fract_z
    _atom_site_occupancy
    C0      C    0.58588   0.57773   0.72456   1.000
    C1      C    0.65535   0.22475   0.09567   1.000
    C2      C    0.91241   0.42244   0.22468   1.000
    C3      C    0.84593   0.77499   0.59648   1.000
    C4      C    0.41411   0.07774   0.77546   1.000
    C5      C    0.34475   0.72462   0.40422   1.000
    C6      C    0.08761   0.92242   0.27536   1.000
    C7      C    0.15402   0.27510   0.90345   1.000
    C8      C    0.41409   0.42229   0.27541   1.000
    C9      C    0.34464   0.77527   0.90430   1.000
    C10     C    0.08755   0.57758   0.77530   1.000
    C11     C    0.15405   0.22503   0.40350   1.000
    C12     C    0.58587   0.92228   0.22452   1.000
    C13     C    0.65521   0.27541   0.59576   1.000
    C14     C    0.91237   0.07760   0.72462   1.000
    C15     C    0.84596   0.72492   0.09654   1.000
