# CIF file generated by openbabel 2.4.90, see http://openbabel.sf.net
data_I
_chemical_name_common ''
_cell_length_a 13.07
_cell_length_b 15.248
_cell_length_c 19.142
_cell_angle_alpha 89.984
_cell_angle_beta 89.996
_cell_angle_gamma 89.964
_space_group_name_H-M_alt 'P 1'
_space_group_name_Hall 'P 1'
loop_
    _symmetry_equiv_pos_as_xyz
    x,y,z
loop_
    _atom_site_label
    _atom_site_type_symbol
    _atom_site_fract_x
    _atom_site_fract_y
    _atom_site_fract_z
    _atom_site_occupancy
    Zr0     Zr   0.32851   0.22740   0.83137   1.000
    Zr1     Zr   0.17105   0.77199   0.33125   1.000
    Zr2     Zr   0.67147   0.72728   0.66857   1.000
    Zr3     Zr   0.82893   0.27224   0.16871   1.000
    Zr4     Zr   0.67146   0.77262   0.16861   1.000
    Zr5     Zr   0.82892   0.22803   0.66873   1.000
    Zr6     Zr   0.32850   0.27274   0.33140   1.000
    Zr7     Zr   0.17105   0.72778   0.83127   1.000
    Zr8     Zr   0.58588   0.57773   0.72456   1.000
    Zr9     Zr   0.65535   0.22475   0.09567   1.000
    Zr10    Zr   0.91241   0.42244   0.22468   1.000
    Zr11    Zr   0.84593   0.77499   0.59648   1.000
    Zr12    Zr   0.41411   0.07774   0.77546   1.000
    Zr13    Zr   0.34475   0.72462   0.40422   1.000
    Zr14    Zr   0.08761   0.92242   0.27536   1.000
    Zr15    Zr   0.15402   0.27510   0.90345   1.000
    Zr16    Zr   0.41409   0.42229   0.27541   1.000
    Zr17    Zr   0.34464   0.77527   0.90430   1.000
    Zr18    Zr   0.08755   0.57758   0.77530   1.000
    Zr19    Zr   0.15405   0.22503   0.40350   1.000
    Zr20    Zr   0.58587   0.92228   0.22452   1.000
    Zr21    Zr   0.65521   0.27541   0.59576   1.000
    Zr22    Zr   0.91237   0.07760   0.72462   1.000
    Zr23    Zr   0.84596   0.72492   0.09654   1.000
    Zr24    Zr   0.56899   0.65201   0.75301   1.000
    Zr25    Zr   0.64907   0.56653   0.67495   1.000
    Zr26    Zr   0.66177   0.29225   0.13543   1.000
    Zr27    Zr   0.71988   0.16305   0.09498   1.000
    Zr28    Zr   0.92914   0.34804   0.25315   1.000
    Zr29    Zr   0.84942   0.43374   0.17503   1.000
    Zr30    Zr   0.83962   0.70728   0.63603   1.000
    Zr31    Zr   0.78144   0.83674   0.59618   1.000
    Zr32    Zr   0.43099   0.15203   0.74701   1.000
    Zr33    Zr   0.35093   0.06657   0.82507   1.000
    Zr34    Zr   0.33823   0.79215   0.36444   1.000
    Zr35    Zr   0.28023   0.66297   0.40494   1.000
    Zr36    Zr   0.07085   0.84803   0.24693   1.000
    Zr37    Zr   0.15060   0.93366   0.32500   1.000
    Zr38    Zr   0.16035   0.20734   0.86397   1.000
    Zr39    Zr   0.21847   0.33682   0.90364   1.000
    Zr40    Zr   0.43099   0.34801   0.24697   1.000
    Zr41    Zr   0.35090   0.43348   0.32502   1.000
    Zr42    Zr   0.33821   0.70776   0.86454   1.000
    Zr43    Zr   0.28010   0.83697   0.90498   1.000
    Zr44    Zr   0.07083   0.65198   0.74684   1.000
    Zr45    Zr   0.15055   0.56627   0.82495   1.000
    Zr46    Zr   0.16035   0.29274   0.36395   1.000
    Zr47    Zr   0.21854   0.16327   0.40380   1.000
    Zr48    Zr   0.56898   0.84799   0.25297   1.000
    Zr49    Zr   0.64904   0.93344   0.17491   1.000
    Zr50    Zr   0.66175   0.20788   0.63552   1.000
    Zr51    Zr   0.71976   0.33704   0.59501   1.000
    Zr52    Zr   0.92912   0.15199   0.75305   1.000
    Zr53    Zr   0.84937   0.06636   0.67498   1.000
    Zr54    Zr   0.83962   0.79268   0.13601   1.000
    Zr55    Zr   0.78150   0.66321   0.09633   1.000
    O56     O    0.68761   0.19390   0.09532   1.000
    O57     O    0.65856   0.25850   0.11555   1.000
    O58     O    0.81373   0.69406   0.09643   1.000
    O59     O    0.84279   0.75880   0.11627   1.000
    O60     O    0.74535   0.28225   0.15207   1.000
    O61     O    0.75554   0.78265   0.15231   1.000
    O62     O    0.66025   0.85303   0.17176   1.000
    O63     O    0.62022   0.81031   0.21079   1.000
    O64     O    0.83917   0.35299   0.17187   1.000
    O65     O    0.87904   0.31014   0.21093   1.000
    O66     O    0.61746   0.92786   0.19972   1.000
    O67     O    0.88092   0.42809   0.19986   1.000
    O68     O    0.57742   0.88513   0.23875   1.000
    O69     O    0.92078   0.38524   0.23892   1.000
    O70     O    0.07923   0.88523   0.26115   1.000
    O71     O    0.12095   0.81001   0.28909   1.000
    O72     O    0.42254   0.38515   0.26119   1.000
    O73     O    0.37974   0.31037   0.28918   1.000
    O74     O    0.11910   0.92804   0.30018   1.000
    O75     O    0.38250   0.42789   0.30022   1.000
    O76     O    0.16082   0.85282   0.32812   1.000
    O77     O    0.33970   0.35311   0.32821   1.000
    O78     O    0.25464   0.78207   0.34785   1.000
    O79     O    0.24443   0.28274   0.34767   1.000
    O80     O    0.15720   0.25889   0.38372   1.000
    O81     O    0.34149   0.75839   0.38433   1.000
    O82     O    0.18629   0.19415   0.40365   1.000
    O83     O    0.31249   0.69380   0.40458   1.000
    O84     O    0.68749   0.30623   0.59539   1.000
    O85     O    0.65848   0.24165   0.61564   1.000
    O86     O    0.81368   0.80587   0.59633   1.000
    O87     O    0.84278   0.74113   0.61626   1.000
    O88     O    0.74533   0.21795   0.65213   1.000
    O89     O    0.75555   0.71728   0.65230   1.000
    O90     O    0.66027   0.64691   0.67176   1.000
    O91     O    0.62023   0.68965   0.71079   1.000
    O92     O    0.83915   0.14719   0.67186   1.000
    O93     O    0.87902   0.19001   0.71089   1.000
    O94     O    0.61748   0.57213   0.69976   1.000
    O95     O    0.88087   0.07198   0.69980   1.000
    O96     O    0.57744   0.61487   0.73879   1.000
    O97     O    0.92075   0.11479   0.73883   1.000
    O98     O    0.07919   0.61478   0.76107   1.000
    O99     O    0.12094   0.68988   0.78905   1.000
    O100    O    0.42255   0.11489   0.76124   1.000
    O101    O    0.37975   0.18971   0.78919   1.000
    O102    O    0.11905   0.57193   0.80013   1.000
    O103    O    0.38252   0.07215   0.80027   1.000
    O104    O    0.16080   0.64702   0.82811   1.000
    O105    O    0.33972   0.14698   0.82822   1.000
    O106    O    0.25463   0.71777   0.84791   1.000
    O107    O    0.24443   0.21737   0.84767   1.000
    O108    O    0.15719   0.24122   0.88371   1.000
    O109    O    0.34142   0.74152   0.88442   1.000
    O110    O    0.18625   0.30596   0.90354   1.000
    O111    O    0.31237   0.80612   0.90464   1.000
    N112    N    0.99312   0.21977   0.50948   1.000
    O113    O    0.05193   0.22148   0.46945   1.000
    O114    O    0.93477   0.22172   0.56279   1.000
    N115    N    0.50671   0.71944   0.50950   1.000
    O116    O    0.56534   0.72128   0.56269   1.000
    O117    O    0.44750   0.72114   0.46974   1.000
    N118    N    0.96588   0.42644   0.73090   1.000
    O119    O    0.01129   0.48262   0.74695   1.000
    O120    O    0.91736   0.35898   0.71043   1.000
    N121    N    0.46486   0.42619   0.76896   1.000
    O122    O    0.41658   0.35859   0.78952   1.000
    O123    O    0.51001   0.48253   0.75288   1.000
    N124    N    0.46479   0.07490   0.26890   1.000
    O125    O    0.50994   0.01803   0.25282   1.000
    O126    O    0.41654   0.14203   0.28949   1.000
    N127    N    0.03503   0.57359   0.26908   1.000
    O128    O    0.08308   0.64104   0.28955   1.000
    O129    O    0.98916   0.51740   0.25303   1.000
    N130    N    0.00842   0.71950   0.99051   1.000
    O131    O    0.94883   0.72127   0.03055   1.000
    O132    O    0.06597   0.72145   0.93720   1.000
    N133    N    0.99316   0.28053   0.00981   1.000
    O134    O    0.93481   0.27858   0.06295   1.000
    O135    O    0.05195   0.27875   0.96960   1.000
    N136    N    0.00846   0.78026   0.49050   1.000
    O137    O    0.06601   0.77830   0.43719   1.000
    O138    O    0.94885   0.77854   0.53053   1.000
    N139    N    0.49342   0.21960   0.99036   1.000
    O140    O    0.43475   0.22143   0.93719   1.000
    O141    O    0.55262   0.22130   0.03013   1.000
    N142    N    0.96590   0.07474   0.23095   1.000
    O143    O    0.01131   0.01798   0.24701   1.000
    O144    O    0.91739   0.14173   0.21045   1.000
    N145    N    0.50656   0.78043   0.00992   1.000
    O146    O    0.56523   0.77860   0.06293   1.000
    O147    O    0.44736   0.77873   0.96999   1.000
    N148    N    0.53518   0.92612   0.73107   1.000
    O149    O    0.58343   0.85850   0.71048   1.000
    O150    O    0.49003   0.98249   0.74715   1.000
    N151    N    0.53510   0.57383   0.23101   1.000
    O152    O    0.58338   0.64143   0.21045   1.000
    O153    O    0.48996   0.51750   0.24709   1.000
    N154    N    0.03502   0.92631   0.76903   1.000
    O155    O    0.08306   0.85881   0.78953   1.000
    O156    O    0.98914   0.98256   0.75297   1.000
    N157    N    0.49327   0.28059   0.49046   1.000
    O158    O    0.55248   0.27888   0.53023   1.000
    O159    O    0.43463   0.27875   0.43728   1.000
loop_
    _geom_bond_atom_site_label_1
    _geom_bond_atom_site_label_2
    _geom_bond_distance
    _geom_bond_site_symmetry_2
    _ccdc_geom_bond_type
    Zr27   O56       0.63161      .   S
    Zr9    O56       0.63161      .   S
    Zr9    O57       0.64159      .   S
    Zr26   O57       0.64159      .   S
    Zr55   O58       0.63172      .   S
    Zr23   O58       0.63172      .   S
    Zr23   O59       0.64139      .   S
    Zr54   O59       0.64139      .   S
    Zr26   O60       1.14797      .   S
    Zr3    O60       1.14797      .   S
    Zr54   O61       1.15258      .   S
    Zr4    O61       1.15258      .   S
    Zr4    O62       1.23621      .   S
    Zr49   O62       1.23621      .   S
    Zr4    O63       1.19594      .   S
    Zr48   O63       1.19594      .   S
    Zr3    O64       1.24012      .   S
    Zr29   O64       1.24012      .   S
    Zr3    O65       1.19030      .   S
    Zr28   O65       1.19030      .   S
    Zr49   O66       0.63493      .   S
    Zr20   O66       0.63493      .   S
    Zr29   O67       0.63459      .   S
    Zr10   O67       0.63459      .   S
    Zr20   O68       0.63804      .   S
    Zr48   O68       0.63804      .   S
    Zr10   O69       0.63853      .   S
    Zr28   O69       0.63853      .   S
    Zr36   O70       0.63859      .   S
    Zr14   O70       0.63859      .   S
    Zr36   O71       1.18974      .   S
    Zr1    O71       1.18974      .   S
    Zr40   O72       0.63800      .   S
    Zr16   O72       0.63800      .   S
    Zr40   O73       1.19627      .   S
    Zr6    O73       1.19627      .   S
    Zr14   O74       0.63452      .   S
    Zr37   O74       0.63452      .   S
    Zr16   O75       0.63498      .   S
    Zr41   O75       0.63498      .   S
    Zr37   O76       1.24107      .   S
    Zr1    O76       1.24107      .   S
    Zr41   O77       1.23582      .   S
    Zr6    O77       1.23582      .   S
    Zr1    O78       1.14824      .   S
    Zr34   O78       1.14824      .   S
    Zr6    O79       1.15219      .   S
    Zr46   O79       1.15219      .   S
    Zr46   O80       0.64142      .   S
    Zr19   O80       0.64142      .   S
    Zr34   O81       0.64157      .   S
    Zr13   O81       0.64157      .   S
    Zr19   O82       0.63170      .   S
    Zr47   O82       0.63170      .   S
    Zr13   O83       0.63166      .   S
    Zr35   O83       0.63166      .   S
    Zr51   O84       0.63165      .   S
    Zr21   O84       0.63165      .   S
    Zr21   O85       0.64156      .   S
    Zr50   O85       0.64156      .   S
    Zr31   O86       0.63170      .   S
    Zr11   O86       0.63170      .   S
    Zr11   O87       0.64143      .   S
    Zr30   O87       0.64143      .   S
    Zr50   O88       1.14823      .   S
    Zr5    O88       1.14823      .   S
    Zr30   O89       1.15220      .   S
    Zr2    O89       1.15220      .   S
    Zr2    O90       1.23584      .   S
    Zr25   O90       1.23584      .   S
    Zr2    O91       1.19630      .   S
    Zr24   O91       1.19630      .   S
    Zr5    O92       1.24109      .   S
    Zr53   O92       1.24109      .   S
    Zr5    O93       1.18976      .   S
    Zr52   O93       1.18976      .   S
    Zr25   O94       0.63498      .   S
    Zr8    O94       0.63498      .   S
    Zr53   O95       0.63451      .   S
    Zr22   O95       0.63451      .   S
    Zr8    O96       0.63800      .   S
    Zr24   O96       0.63800      .   S
    Zr22   O97       0.63859      .   S
    Zr52   O97       0.63859      .   S
    Zr44   O98       0.63854      .   S
    Zr18   O98       0.63854      .   S
    Zr44   O99       1.19028      .   S
    Zr7    O99       1.19028      .   S
    Zr32   O100      0.63804      .   S
    Zr12   O100      0.63804      .   S
    Zr32   O101      1.19591      .   S
    Zr0    O101      1.19591      .   S
    Zr18   O102      0.63459      .   S
    Zr45   O102      0.63459      .   S
    Zr12   O103      0.63493      .   S
    Zr33   O103      0.63493      .   S
    Zr45   O104      1.24018      .   S
    Zr7    O104      1.24018      .   S
    Zr33   O105      1.23629      .   S
    Zr0    O105      1.23629      .   S
    Zr7    O106      1.14798      .   S
    Zr42   O106      1.14798      .   S
    Zr0    O107      1.15260      .   S
    Zr38   O107      1.15260      .   S
    Zr38   O108      0.64140      .   S
    Zr15   O108      0.64140      .   S
    Zr42   O109      0.64158      .   S
    Zr17   O109      0.64158      .   S
    Zr15   O110      0.63172      .   S
    Zr39   O110      0.63172      .   S
    Zr17   O111      0.63161      .   S
    Zr43   O111      0.63161      .   S
    N112   O113      1.08558  1_655   S
    Zr19   O113      1.83794      .   S
    N112   O114      1.27427      .   S
    Zr5    O114      2.45665      .   S
    N115   O116      1.27465      .   S
    Zr2    O116      2.45779      .   S
    N115   O117      1.08584      .   S
    Zr13   O117      1.83831      .   S
    N118   O119      1.08693  1_655   S
    Zr18   O119      1.84036      .   S
    N118   O120      1.27072      .   S
    Zr5    O120      2.44219      .   S
    N121   O122      1.27122      .   S
    Zr0    O122      2.44348      .   S
    N121   O123      1.08681      .   S
    Zr8    O123      1.84007      .   S
    N124   O125      1.09289      .   S
    Zr20   O125      1.84622  1_565   S
    N124   O126      1.26490      .   S
    Zr6    O126      2.43678      .   S
    N127   O128      1.26765      .   S
    Zr1    O128      2.43926      .   S
    N127   O129      1.09033  1_455   S
    Zr10   O129      1.84374      .   S
    N130   O131      1.09295  1_456   S
    Zr23   O131      1.84552      .   S
    N130   O132      1.26806      .   S
    Zr7    O132      2.45087      .   S
    N133   O134      1.27170      .   S
    Zr3    O134      2.45406      .   S
    N133   O135      1.08782  1_654   S
    Zr15   O135      1.84014      .   S
    N136   O137      1.26804      .   S
    Zr1    O137      2.45078      .   S
    N136   O138      1.09299  1_455   S
    Zr11   O138      1.84553      .   S
    N139   O140      1.27463      .   S
    Zr0    O140      2.45777      .   S
    N139   O141      1.08582  1_556   S
    Zr9    O141      1.83829      .   S
    N142   O143      1.09313  1_655   S
    Zr14   O143      1.84661  1_565   S
    N142   O144      1.26433      .   S
    Zr3    O144      2.43550      .   S
    N145   O146      1.27221      .   S
    Zr4    O146      2.45530      .   S
    N145   O147      1.08796  1_554   S
    Zr17   O147      1.84036      .   S
    N148   O149      1.27112      .   S
    Zr2    O149      2.44308      .   S
    N148   O150      1.08681      .   S
    Zr12   O150      1.84015  1_545   S
    N151   O152      1.27122      .   S
    Zr4    O152      2.44348      .   S
    N151   O153      1.08682      .   S
    Zr16   O153      1.84008      .   S
    N154   O155      1.26763      .   S
    Zr7    O155      2.43904      .   S
    N154   O156      1.09028  1_455   S
    Zr22   O156      1.84376  1_545   S
    N157   O158      1.08583      .   S
    Zr21   O158      1.83832      .   S
    N157   O159      1.27465      .   S
    Zr6    O159      2.45780      .   S
