# CIF file generated by openbabel 2.4.90, see http://openbabel.sf.net
data_I
_chemical_name_common ''
_cell_length_a 13.694
_cell_length_b 14.215
_cell_length_c 15.969
_cell_angle_alpha 90.002
_cell_angle_beta 89.985
_cell_angle_gamma 89.953
_space_group_name_H-M_alt 'P 1'
_space_group_name_Hall 'P 1'
loop_
    _symmetry_equiv_pos_as_xyz
    x,y,z
loop_
    _atom_site_label
    _atom_site_type_symbol
    _atom_site_fract_x
    _atom_site_fract_y
    _atom_site_fract_z
    _atom_site_occupancy
    C0      C    0.13876   0.87102   0.11010   1.000
    C1      C    0.63875   0.87102   0.11009   1.000
    C2      C    0.11080   0.13827   0.38130   1.000
    C3      C    0.61080   0.13827   0.38129   1.000
    C4      C    0.11096   0.12844   0.61140   1.000
    C5      C    0.61097   0.12844   0.61148   1.000
    C6      C    0.13894   0.85807   0.88009   1.000
    C7      C    0.63895   0.85807   0.88009   1.000
    C8      C    0.36068   0.36955   0.38900   1.000
    C9      C    0.86068   0.36960   0.38912   1.000
    C10     C    0.38906   0.63979   0.12029   1.000
    C11     C    0.88907   0.63983   0.12033   1.000
    C12     C    0.38895   0.62704   0.89012   1.000
    C13     C    0.88895   0.62700   0.89015   1.000
    C14     C    0.36067   0.35977   0.61913   1.000
    C15     C    0.86066   0.35973   0.61917   1.000
    O16     O    0.35460   0.19332   0.49821   1.000
    O17     O    0.85461   0.19331   0.49820   1.000
    O18     O    0.22396   0.85081   0.08200   1.000
    O19     O    0.72396   0.85082   0.08280   1.000
    O20     O    0.02571   0.15675   0.40969   1.000
    O21     O    0.52571   0.15673   0.40970   1.000
    O22     O    0.05874   0.83519   0.08381   1.000
    O23     O    0.55874   0.83519   0.08381   1.000
    O24     O    0.19088   0.17270   0.40891   1.000
    O25     O    0.69088   0.17272   0.40889   1.000
    O26     O    0.39505   0.80461   0.99710   1.000
    O27     O    0.89505   0.80459   0.99713   1.000
    O28     O    0.02594   0.14835   0.58370   1.000
    O29     O    0.52595   0.14835   0.58373   1.000
    O30     O    0.22382   0.83966   0.90890   1.000
    O31     O    0.72383   0.83966   0.90890   1.000
    O32     O    0.19107   0.16486   0.58601   1.000
    O33     O    0.69108   0.16485   0.58000   1.000
    O34     O    0.05875   0.82306   0.90690   1.000
    O35     O    0.55877   0.82307   0.90695   1.000
    O36     O    0.14511   0.69323   0.00310   1.000
    O37     O    0.64511   0.69324   0.00318   1.000
    O38     O    0.27558   0.34944   0.41650   1.000
    O39     O    0.77558   0.34945   0.41651   1.000
    O40     O    0.47396   0.65827   0.09158   1.000
    O41     O    0.97396   0.65829   0.09161   1.000
    O42     O    0.44076   0.33335   0.41498   1.000
    O43     O    0.94077   0.33339   0.41503   1.000
    O44     O    0.30886   0.67475   0.09329   1.000
    O45     O    0.80886   0.67476   0.09331   1.000
    O46     O    0.10452   0.30458   0.50258   1.000
    O47     O    0.60452   0.30459   0.50257   1.000
    O48     O    0.47411   0.64708   0.91741   1.000
    O49     O    0.97411   0.64706   0.91744   1.000
    O50     O    0.27569   0.34147   0.59053   1.000
    O51     O    0.77569   0.34146   0.59054   1.000
    O52     O    0.30887   0.66288   0.91642   1.000
    O53     O    0.80887   0.66287   0.91644   1.000
    O54     O    0.44081   0.32496   0.59180   1.000
    O55     O    0.94081   0.32493   0.59190   1.000
loop_
    _geom_bond_atom_site_label_1
    _geom_bond_atom_site_label_2
    _geom_bond_distance
    _geom_bond_site_symmetry_2
    _ccdc_geom_bond_type
    O18    C0        1.28238      .   S
    O19    C1        1.27790      .   S
    O22    C0        1.27962      .   S
    O23    C1        1.27960      .   S
    O40    C10       1.27710      .   S
    O41    C11       1.27710      .   S
    O44    C10       1.28003      .   S
    O45    C11       1.28001      .   S
    C3     O25       1.27979      .   S
    C3     O21       1.27731      .   S
    C2     O24       1.27981      .   S
    C2     O20       1.27726      .   S
    C8     O42       1.28025      .   S
    C8     O38       1.27782      .   S
    C9     O43       1.27988      .   S
    C9     O39       1.27742      .   S
    O33    C5        1.31327      .   S
    O28    C4        1.27709      .   S
    O29    C5        1.27741      .   S
    O32    C4        1.27927      .   S
    O50    C14       1.27721      .   S
    O51    C15       1.27722      .   S
    O54    C14       1.28007      .   S
    O55    C15       1.27975      .   S
    C6     O34       1.27956      .   S
    C6     O30       1.27710      .   S
    C7     O35       1.27982      .   S
    C7     O31       1.27711      .   S
    C12    O52       1.27967      .   S
    C12    O48       1.27737      .   S
    C13    O53       1.27973      .   S
    C13    O49       1.27741      .   S
