# CIF file generated by openbabel 2.4.90, see http://openbabel.sf.net
data_I
_chemical_name_common ''
_cell_length_a 13.694
_cell_length_b 14.215
_cell_length_c 15.969
_cell_angle_alpha 90.002
_cell_angle_beta 89.985
_cell_angle_gamma 89.953
_space_group_name_H-M_alt 'P 1'
_space_group_name_Hall 'P 1'
loop_
    _symmetry_equiv_pos_as_xyz
    x,y,z
loop_
    _atom_site_label
    _atom_site_type_symbol
    _atom_site_fract_x
    _atom_site_fract_y
    _atom_site_fract_z
    _atom_site_occupancy
    V0      V    0.96590   0.23430   0.49985   1.000
    V1      V    0.28380   0.76356   0.99989   1.000
    V2      V    0.78380   0.76356   0.99989   1.000
    V3      V    0.03382   0.73433   0.00047   1.000
    V4      V    0.53382   0.73434   0.00046   1.000
    V5      V    0.21588   0.26362   0.50075   1.000
    V6      V    0.71588   0.26362   0.50075   1.000
    V7      V    0.46590   0.23430   0.49984   1.000
    C8      C    0.13876   0.87102   0.11010   1.000
    C9      C    0.63875   0.87102   0.11009   1.000
    C10     C    0.11080   0.13827   0.38130   1.000
    C11     C    0.61080   0.13827   0.38129   1.000
    C12     C    0.11096   0.12844   0.61140   1.000
    C13     C    0.61097   0.12844   0.61148   1.000
    C14     C    0.13894   0.85807   0.88009   1.000
    C15     C    0.63895   0.85807   0.88009   1.000
    C16     C    0.36068   0.36955   0.38900   1.000
    C17     C    0.86068   0.36960   0.38912   1.000
    C18     C    0.38906   0.63979   0.12029   1.000
    C19     C    0.88907   0.63983   0.12033   1.000
    C20     C    0.38895   0.62704   0.89012   1.000
    C21     C    0.88895   0.62700   0.89015   1.000
    C22     C    0.36067   0.35977   0.61913   1.000
    C23     C    0.86066   0.35973   0.61917   1.000
    O24     O    0.35460   0.19332   0.49821   1.000
    O25     O    0.85461   0.19331   0.49820   1.000
    O26     O    0.22396   0.85081   0.08200   1.000
    O27     O    0.72396   0.85082   0.08280   1.000
    O28     O    0.02571   0.15675   0.40969   1.000
    O29     O    0.52571   0.15673   0.40970   1.000
    O30     O    0.05874   0.83519   0.08381   1.000
    O31     O    0.55874   0.83519   0.08381   1.000
    O32     O    0.19088   0.17270   0.40891   1.000
    O33     O    0.69088   0.17272   0.40889   1.000
    O34     O    0.39505   0.80461   0.99710   1.000
    O35     O    0.89505   0.80459   0.99713   1.000
    O36     O    0.02594   0.14835   0.58370   1.000
    O37     O    0.52595   0.14835   0.58373   1.000
    O38     O    0.22382   0.83966   0.90890   1.000
    O39     O    0.72383   0.83966   0.90890   1.000
    O40     O    0.19107   0.16486   0.58601   1.000
    O41     O    0.69108   0.16485   0.58000   1.000
    O42     O    0.05875   0.82306   0.90690   1.000
    O43     O    0.55877   0.82307   0.90695   1.000
    O44     O    0.14511   0.69323   0.00310   1.000
    O45     O    0.64511   0.69324   0.00318   1.000
    O46     O    0.27558   0.34944   0.41650   1.000
    O47     O    0.77558   0.34945   0.41651   1.000
    O48     O    0.47396   0.65827   0.09158   1.000
    O49     O    0.97396   0.65829   0.09161   1.000
    O50     O    0.44076   0.33335   0.41498   1.000
    O51     O    0.94077   0.33339   0.41503   1.000
    O52     O    0.30886   0.67475   0.09329   1.000
    O53     O    0.80886   0.67476   0.09331   1.000
    O54     O    0.10452   0.30458   0.50258   1.000
    O55     O    0.60452   0.30459   0.50257   1.000
    O56     O    0.47411   0.64708   0.91741   1.000
    O57     O    0.97411   0.64706   0.91744   1.000
    O58     O    0.27569   0.34147   0.59053   1.000
    O59     O    0.77569   0.34146   0.59054   1.000
    O60     O    0.30887   0.66288   0.91642   1.000
    O61     O    0.80887   0.66287   0.91644   1.000
    O62     O    0.44081   0.32496   0.59180   1.000
    O63     O    0.94081   0.32493   0.59190   1.000
    Og64    Og   0.13634   0.89452   0.13298   1.000
    Og65    Og   0.63634   0.89452   0.13297   1.000
    Og66    Og   0.11313   0.11579   0.35762   1.000
    Og67    Og   0.61312   0.11579   0.35759   1.000
    Og68    Og   0.11335   0.10477   0.63415   1.000
    Og69    Og   0.61336   0.10477   0.63420   1.000
    Og70    Og   0.13665   0.88079   0.85661   1.000
    Og71    Og   0.63666   0.88079   0.85659   1.000
    Og72    Og   0.36310   0.39321   0.36628   1.000
    Og73    Og   0.86311   0.39327   0.36639   1.000
    Og74    Og   0.38675   0.61707   0.14378   1.000
    Og75    Og   0.88676   0.61712   0.14383   1.000
    Og76    Og   0.38653   0.60360   0.86708   1.000
    Og77    Og   0.88653   0.60355   0.86725   1.000
    Og78    Og   0.36299   0.38231   0.64272   1.000
    Og79    Og   0.86298   0.38226   0.64280   1.000
loop_
    _geom_bond_atom_site_label_1
    _geom_bond_atom_site_label_2
    _geom_bond_distance
    _geom_bond_site_symmetry_2
    _ccdc_geom_bond_type
    V4     O45       1.63226      .   S
    V4     O31       1.98599      .   S
    V4     O48       1.98981      .   S
    V4     O43       1.98445  1_554   S
    V4     O56       1.99200  1_554   S
    V4     O34       2.14687  1_554   S
    V3     O44       1.63222      .   S
    V3     O30       1.98598      .   S
    V3     O49       1.98982  1_455   S
    V3     O42       1.98511  1_554   S
    V3     O57       1.99197  1_454   S
    V3     O35       2.14669  1_454   S
    O44    V1        2.14769  1_554   S
    O45    V2        2.14756  1_554   S
    O26    C8        1.28238      .   S
    O26    V1        1.98156  1_554   S
    O27    C9        1.27790      .   S
    O27    V2        1.99018  1_554   S
    O30    C8        1.27962      .   S
    O31    C9        1.27960      .   S
    O48    C18       1.27710      .   S
    O49    C19       1.27710      .   S
    O52    C18       1.28003      .   S
    O52    V1        1.98388  1_554   S
    O53    C19       1.28001      .   S
    O53    V2        1.98401  1_554   S
    C11    O33       1.27979      .   S
    C11    O29       1.27731      .   S
    C10    O32       1.27981      .   S
    C10    O28       1.27726      .   S
    C16    O50       1.28025      .   S
    C16    O46       1.27782      .   S
    C17    O51       1.27988      .   S
    C17    O47       1.27742      .   S
    O33    V6        1.98485      .   S
    O32    V5        1.98474      .   S
    O28    V0        1.98925  1_455   S
    O29    V7        1.98906      .   S
    O50    V7        1.98413      .   S
    O51    V0        1.98405      .   S
    O46    V5        1.99193      .   S
    O47    V6        1.99192      .   S
    O25    V0        1.63226      .   S
    O25    V6        2.14621      .   S
    O24    V7        1.63225      .   S
    O24    V5        2.14610      .   S
    V7     O55       2.14637      .   S
    V7     O37       1.99061      .   S
    V7     O62       1.98351      .   S
    V0     O54       2.14630  1_655   S
    V0     O36       1.99026  1_655   S
    V0     O63       1.98425      .   S
    V5     O54       1.63219      .   S
    V5     O40       1.98514      .   S
    V5     O58       1.98814      .   S
    V6     O55       1.63220      .   S
    V6     O41       1.92063      .   S
    V6     O59       1.98821      .   S
    O41    C13       1.31327      .   S
    O36    C12       1.27709      .   S
    O37    C13       1.27741      .   S
    O40    C12       1.27927      .   S
    O58    C22       1.27721      .   S
    O59    C23       1.27722      .   S
    O62    C22       1.28007      .   S
    O63    C23       1.27975      .   S
    C14    O42       1.27956      .   S
    C14    O38       1.27710      .   S
    C15    O43       1.27982      .   S
    C15    O39       1.27711      .   S
    C20    O60       1.27967      .   S
    C20    O56       1.27737      .   S
    C21    O61       1.27973      .   S
    C21    O57       1.27741      .   S
    O39    V2        1.98875      .   S
    O38    V1        1.98882      .   S
    O60    V1        1.98538      .   S
    O61    V2        1.98525      .   S
    O34    V1        1.63233      .   S
    O35    V2        1.63231      .   S
    C8     Og64      0.49608      .   S
    C9     Og65      0.49608      .   S
    C10    Og66      0.49604      .   S
    C11    Og67      0.49625      .   S
    C12    Og68      0.49632      .   S
    C13    Og69      0.49597      .   S
    C14    Og70      0.49594      .   S
    C15    Og71      0.49609      .   S
    C16    Og72      0.49581      .   S
    C17    Og73      0.49612      .   S
    C18    Og74      0.49602      .   S
    C19    Og75      0.49602      .   S
    C20    Og76      0.49755      .   S
    C21    Og77      0.49598      .   S
    C22    Og78      0.49557      .   S
    C23    Og79      0.49591      .   S
