# CIF file generated by openbabel 2.4.90, see http://openbabel.sf.net
data_I
_chemical_name_common ''
_cell_length_a 13.694
_cell_length_b 14.215
_cell_length_c 15.969
_cell_angle_alpha 90.002
_cell_angle_beta 89.985
_cell_angle_gamma 89.953
_space_group_name_H-M_alt 'P 1'
_space_group_name_Hall 'P 1'
loop_
    _symmetry_equiv_pos_as_xyz
    x,y,z
loop_
    _atom_site_label
    _atom_site_type_symbol
    _atom_site_fract_x
    _atom_site_fract_y
    _atom_site_fract_z
    _atom_site_occupancy
    C0      C    0.13876   0.87102   0.11010   1.000
    C1      C    0.63875   0.87102   0.11009   1.000
    C2      C    0.11080   0.13827   0.38130   1.000
    C3      C    0.61080   0.13827   0.38129   1.000
    C4      C    0.11096   0.12844   0.61140   1.000
    C5      C    0.61097   0.12844   0.61148   1.000
    C6      C    0.13894   0.85807   0.88009   1.000
    C7      C    0.63895   0.85807   0.88009   1.000
    C8      C    0.36068   0.36955   0.38900   1.000
    C9      C    0.86068   0.36960   0.38912   1.000
    C10     C    0.38906   0.63979   0.12029   1.000
    C11     C    0.88907   0.63983   0.12033   1.000
    C12     C    0.38895   0.62704   0.89012   1.000
    C13     C    0.88895   0.62700   0.89015   1.000
    C14     C    0.36067   0.35977   0.61913   1.000
    C15     C    0.86066   0.35973   0.61917   1.000
