# CIF file generated by openbabel 2.4.90, see http://openbabel.sf.net
data_I
_chemical_name_common ''
_cell_length_a 13.694
_cell_length_b 14.215
_cell_length_c 15.969
_cell_angle_alpha 90.002
_cell_angle_beta 89.985
_cell_angle_gamma 89.953
_space_group_name_H-M_alt 'P 1'
_space_group_name_Hall 'P 1'
loop_
    _symmetry_equiv_pos_as_xyz
    x,y,z
loop_
    _atom_site_label
    _atom_site_type_symbol
    _atom_site_fract_x
    _atom_site_fract_y
    _atom_site_fract_z
    _atom_site_occupancy
    Zr0     Zr   0.46590   0.23430   0.49984   1.000
    Zr1     Zr   0.96590   0.23430   0.49985   1.000
    Zr2     Zr   0.28380   0.76356   0.99989   1.000
    Zr3     Zr   0.78380   0.76356   0.99989   1.000
    Zr4     Zr   0.03382   0.73433   0.00047   1.000
    Zr5     Zr   0.53382   0.73434   0.00046   1.000
    Zr6     Zr   0.21588   0.26362   0.50075   1.000
    Zr7     Zr   0.71588   0.26362   0.50075   1.000
    Zr8     Zr   0.13876   0.87102   0.11010   1.000
    Zr9     Zr   0.63875   0.87102   0.11009   1.000
    Zr10    Zr   0.11080   0.13827   0.38130   1.000
    Zr11    Zr   0.61080   0.13827   0.38129   1.000
    Zr12    Zr   0.11096   0.12844   0.61140   1.000
    Zr13    Zr   0.61097   0.12844   0.61148   1.000
    Zr14    Zr   0.13894   0.85807   0.88009   1.000
    Zr15    Zr   0.63895   0.85807   0.88009   1.000
    Zr16    Zr   0.36068   0.36955   0.38900   1.000
    Zr17    Zr   0.86068   0.36960   0.38912   1.000
    Zr18    Zr   0.38906   0.63979   0.12029   1.000
    Zr19    Zr   0.88907   0.63983   0.12033   1.000
    Zr20    Zr   0.38895   0.62704   0.89012   1.000
    Zr21    Zr   0.88895   0.62700   0.89015   1.000
    Zr22    Zr   0.36067   0.35977   0.61913   1.000
    Zr23    Zr   0.86066   0.35973   0.61917   1.000
    Zr24    Zr   0.35460   0.19332   0.49821   1.000
    Zr25    Zr   0.85461   0.19331   0.49820   1.000
    Zr26    Zr   0.22396   0.85081   0.08200   1.000
    Zr27    Zr   0.72396   0.85082   0.08280   1.000
    Zr28    Zr   0.02571   0.15675   0.40969   1.000
    Zr29    Zr   0.52571   0.15673   0.40970   1.000
    Zr30    Zr   0.05874   0.83519   0.08381   1.000
    Zr31    Zr   0.55874   0.83519   0.08381   1.000
    Zr32    Zr   0.19088   0.17270   0.40891   1.000
    Zr33    Zr   0.69088   0.17272   0.40889   1.000
    Zr34    Zr   0.39505   0.80461   0.99710   1.000
    Zr35    Zr   0.89505   0.80459   0.99713   1.000
    Zr36    Zr   0.02594   0.14835   0.58370   1.000
    Zr37    Zr   0.52595   0.14835   0.58373   1.000
    Zr38    Zr   0.22382   0.83966   0.90890   1.000
    Zr39    Zr   0.72383   0.83966   0.90890   1.000
    Zr40    Zr   0.19107   0.16486   0.58601   1.000
    Zr41    Zr   0.69108   0.16485   0.58000   1.000
    Zr42    Zr   0.05875   0.82306   0.90690   1.000
    Zr43    Zr   0.55877   0.82307   0.90695   1.000
    Zr44    Zr   0.14511   0.69323   0.00310   1.000
    Zr45    Zr   0.64511   0.69324   0.00318   1.000
    Zr46    Zr   0.27558   0.34944   0.41650   1.000
    Zr47    Zr   0.77558   0.34945   0.41651   1.000
    Zr48    Zr   0.47396   0.65827   0.09158   1.000
    Zr49    Zr   0.97396   0.65829   0.09161   1.000
    Zr50    Zr   0.44076   0.33335   0.41498   1.000
    Zr51    Zr   0.94077   0.33339   0.41503   1.000
    Zr52    Zr   0.30886   0.67475   0.09329   1.000
    Zr53    Zr   0.80886   0.67476   0.09331   1.000
    Zr54    Zr   0.10452   0.30458   0.50258   1.000
    Zr55    Zr   0.60452   0.30459   0.50257   1.000
    Zr56    Zr   0.47411   0.64708   0.91741   1.000
    Zr57    Zr   0.97411   0.64706   0.91744   1.000
    Zr58    Zr   0.27569   0.34147   0.59053   1.000
    Zr59    Zr   0.77569   0.34146   0.59054   1.000
    Zr60    Zr   0.30887   0.66288   0.91642   1.000
    Zr61    Zr   0.80887   0.66287   0.91644   1.000
    Zr62    Zr   0.44081   0.32496   0.59180   1.000
    Zr63    Zr   0.94081   0.32493   0.59190   1.000
    O64     O    0.58947   0.71379   0.00182   1.000
    O65     O    0.54628   0.78476   0.04213   1.000
    O66     O    0.50389   0.69631   0.04602   1.000
    O67     O    0.54629   0.77870   0.95370   1.000
    O68     O    0.50396   0.69071   0.95893   1.000
    O69     O    0.46443   0.76947   0.99878   1.000
    O70     O    0.08946   0.71378   0.00179   1.000
    O71     O    0.04628   0.78476   0.04214   1.000
    O72     O    0.00389   0.69631   0.04604   1.000
    O73     O    0.04629   0.77870   0.95369   1.000
    O74     O    0.00396   0.69069   0.95895   1.000
    O75     O    0.96444   0.76946   0.99880   1.000
    O76     O    0.21445   0.72840   0.00149   1.000
    O77     O    0.71446   0.72840   0.00153   1.000
    O78     O    0.18136   0.86092   0.09605   1.000
    O79     O    0.25388   0.80719   0.04095   1.000
    O80     O    0.68136   0.86092   0.09645   1.000
    O81     O    0.75388   0.80719   0.04134   1.000
    O82     O    0.09875   0.85311   0.09695   1.000
    O83     O    0.59875   0.85311   0.09695   1.000
    O84     O    0.43151   0.64903   0.10593   1.000
    O85     O    0.93151   0.64906   0.10597   1.000
    O86     O    0.34896   0.65727   0.10679   1.000
    O87     O    0.29633   0.71916   0.04659   1.000
    O88     O    0.84896   0.65729   0.10682   1.000
    O89     O    0.79633   0.71916   0.04660   1.000
    O90     O    0.65084   0.15549   0.39509   1.000
    O91     O    0.56825   0.14750   0.39549   1.000
    O92     O    0.15084   0.15548   0.39510   1.000
    O93     O    0.06826   0.14751   0.39549   1.000
    O94     O    0.40072   0.35145   0.40199   1.000
    O95     O    0.31813   0.35949   0.40275   1.000
    O96     O    0.90073   0.35149   0.40208   1.000
    O97     O    0.81813   0.35952   0.40281   1.000
    O98     O    0.70338   0.21817   0.45482   1.000
    O99     O    0.20338   0.21816   0.45483   1.000
    O100    O    0.99581   0.19553   0.45477   1.000
    O101    O    0.49581   0.19552   0.45477   1.000
    O102    O    0.45333   0.28382   0.45741   1.000
    O103    O    0.95333   0.28385   0.45744   1.000
    O104    O    0.24573   0.30653   0.45863   1.000
    O105    O    0.74573   0.30653   0.45863   1.000
    O106    O    0.91025   0.21381   0.49902   1.000
    O107    O    0.78525   0.22847   0.49948   1.000
    O108    O    0.41025   0.21381   0.49902   1.000
    O109    O    0.28524   0.22847   0.49948   1.000
    O110    O    0.53521   0.26944   0.50121   1.000
    O111    O    0.49593   0.19133   0.54178   1.000
    O112    O    0.45335   0.27963   0.54582   1.000
    O113    O    0.03521   0.26944   0.50122   1.000
    O114    O    0.99592   0.19132   0.54178   1.000
    O115    O    0.95335   0.27962   0.54587   1.000
    O116    O    0.16020   0.28410   0.50167   1.000
    O117    O    0.20348   0.21424   0.54338   1.000
    O118    O    0.24578   0.30254   0.54564   1.000
    O119    O    0.66020   0.28410   0.50166   1.000
    O120    O    0.70348   0.21423   0.54037   1.000
    O121    O    0.74578   0.30254   0.54564   1.000
    O122    O    0.65103   0.14664   0.59574   1.000
    O123    O    0.06845   0.13839   0.59755   1.000
    O124    O    0.56846   0.13840   0.59760   1.000
    O125    O    0.15102   0.14665   0.59871   1.000
    O126    O    0.31818   0.35062   0.60483   1.000
    O127    O    0.81817   0.35059   0.60485   1.000
    O128    O    0.40074   0.34236   0.60547   1.000
    O129    O    0.90073   0.34233   0.60554   1.000
    O130    O    0.09884   0.84056   0.89350   1.000
    O131    O    0.18138   0.84886   0.89449   1.000
    O132    O    0.59886   0.84057   0.89352   1.000
    O133    O    0.68139   0.84886   0.89449   1.000
    O134    O    0.34891   0.64496   0.90327   1.000
    O135    O    0.43153   0.63706   0.90376   1.000
    O136    O    0.84891   0.64493   0.90329   1.000
    O137    O    0.93153   0.63703   0.90379   1.000
    O138    O    0.75382   0.80161   0.95439   1.000
    O139    O    0.25381   0.80161   0.95439   1.000
    O140    O    0.29633   0.71322   0.95815   1.000
    O141    O    0.79634   0.71321   0.95817   1.000
    O142    O    0.33942   0.78408   0.99849   1.000
    O143    O    0.83943   0.78407   0.99851   1.000
    N144    N    0.37507   0.50623   0.25592   1.000
    O145    O    0.36969   0.45563   0.30542   1.000
    O146    O    0.38033   0.55597   0.20572   1.000
    N147    N    0.37465   0.49190   0.75575   1.000
    O148    O    0.37999   0.54189   0.80566   1.000
    O149    O    0.36940   0.44274   0.70513   1.000
    N150    N    0.12512   0.99167   0.74451   1.000
    O151    O    0.11983   0.04230   0.69502   1.000
    O152    O    0.13031   0.94191   0.79469   1.000
    N153    N    0.62513   0.99167   0.74450   1.000
    O154    O    0.61984   0.04230   0.69503   1.000
    O155    O    0.63033   0.94191   0.79467   1.000
    N156    N    0.12462   0.00635   0.24436   1.000
    O157    O    0.12988   0.95631   0.19439   1.000
    O158    O    0.11946   0.05545   0.29507   1.000
    N159    N    0.87463   0.49182   0.75588   1.000
    O160    O    0.86939   0.44267   0.70524   1.000
    O161    O    0.87998   0.54182   0.80584   1.000
    N162    N    0.62461   0.00636   0.24433   1.000
    O163    O    0.62987   0.95632   0.19437   1.000
    O164    O    0.61945   0.05546   0.29504   1.000
    N165    N    0.87508   0.50632   0.25601   1.000
    O166    O    0.88034   0.55604   0.20579   1.000
    O167    O    0.86971   0.45571   0.30551   1.000
loop_
    _geom_bond_atom_site_label_1
    _geom_bond_atom_site_label_2
    _geom_bond_distance
    _geom_bond_site_symmetry_2
    _ccdc_geom_bond_type
    Zr5    O64       0.81613      .   S
    Zr45   O64       0.81613      .   S
    Zr5    O65       0.99299      .   S
    Zr31   O65       0.99299      .   S
    Zr5    O66       0.99490      .   S
    Zr48   O66       0.99490      .   S
    Zr5    O67       0.99222  1_554   S
    Zr43   O67       0.99222      .   S
    Zr5    O68       0.99600  1_554   S
    Zr56   O68       0.99600      .   S
    Zr5    O69       1.07343  1_554   S
    Zr34   O69       1.07343      .   S
    Zr4    O70       0.81611      .   S
    Zr44   O70       0.81611      .   S
    Zr4    O71       0.99299      .   S
    Zr30   O71       0.99299      .   S
    Zr4    O72       0.99491      .   S
    Zr49   O72       0.99491  1_655   S
    Zr4    O73       0.99255  1_554   S
    Zr42   O73       0.99255      .   S
    Zr4    O74       0.99598  1_554   S
    Zr57   O74       0.99598  1_655   S
    Zr4    O75       1.07334  1_454   S
    Zr35   O75       1.07334      .   S
    Zr44   O76       1.07384      .   S
    Zr2    O76       1.07384  1_556   S
    Zr45   O77       1.07378      .   S
    Zr3    O77       1.07378  1_556   S
    Zr26   O78       0.64119      .   S
    Zr8    O78       0.64119      .   S
    Zr26   O79       0.99078      .   S
    Zr2    O79       0.99078  1_556   S
    Zr27   O80       0.63895      .   S
    Zr9    O80       0.63895      .   S
    Zr27   O81       0.99509      .   S
    Zr3    O81       0.99509  1_556   S
    Zr30   O82       0.63981      .   S
    Zr8    O82       0.63981      .   S
    Zr31   O83       0.63980      .   S
    Zr9    O83       0.63980      .   S
    Zr48   O84       0.63855      .   S
    Zr18   O84       0.63855      .   S
    Zr49   O85       0.63855      .   S
    Zr19   O85       0.63855      .   S
    Zr52   O86       0.64001      .   S
    Zr18   O86       0.64001      .   S
    Zr52   O87       0.99194      .   S
    Zr2    O87       0.99194  1_556   S
    Zr53   O88       0.64000      .   S
    Zr19   O88       0.64000      .   S
    Zr53   O89       0.99200      .   S
    Zr3    O89       0.99200  1_556   S
    Zr11   O90       0.63989      .   S
    Zr33   O90       0.63989      .   S
    Zr11   O91       0.63866      .   S
    Zr29   O91       0.63866      .   S
    Zr10   O92       0.63990      .   S
    Zr32   O92       0.63990      .   S
    Zr10   O93       0.63863      .   S
    Zr28   O93       0.63863      .   S
    Zr16   O94       0.64013      .   S
    Zr50   O94       0.64013      .   S
    Zr16   O95       0.63891      .   S
    Zr46   O95       0.63891      .   S
    Zr17   O96       0.63994      .   S
    Zr51   O96       0.63994      .   S
    Zr17   O97       0.63871      .   S
    Zr47   O97       0.63871      .   S
    Zr33   O98       0.99243      .   S
    Zr7    O98       0.99243      .   S
    Zr32   O99       0.99237      .   S
    Zr6    O99       0.99237      .   S
    Zr28   O100      0.99462  1_455   S
    Zr1    O100      0.99462      .   S
    Zr29   O101      0.99453      .   S
    Zr0    O101      0.99453      .   S
    Zr50   O102      0.99207      .   S
    Zr0    O102      0.99207      .   S
    Zr51   O103      0.99202      .   S
    Zr1    O103      0.99202      .   S
    Zr46   O104      0.99596      .   S
    Zr6    O104      0.99596      .   S
    Zr47   O105      0.99596      .   S
    Zr7    O105      0.99596      .   S
    Zr25   O106      0.81613      .   S
    Zr1    O106      0.81613      .   S
    Zr25   O107      1.07310      .   S
    Zr7    O107      1.07310      .   S
    Zr24   O108      0.81613      .   S
    Zr0    O108      0.81613      .   S
    Zr24   O109      1.07305      .   S
    Zr6    O109      1.07305      .   S
    Zr0    O110      1.07318      .   S
    Zr55   O110      1.07318      .   S
    Zr0    O111      0.99531      .   S
    Zr37   O111      0.99531      .   S
    Zr0    O112      0.99176      .   S
    Zr62   O112      0.99176      .   S
    Zr1    O113      1.07315  1_655   S
    Zr54   O113      1.07315      .   S
    Zr1    O114      0.99513      .   S
    Zr36   O114      0.99513  1_455   S
    Zr1    O115      0.99213      .   S
    Zr63   O115      0.99213      .   S
    Zr6    O116      0.81610      .   S
    Zr54   O116      0.81610      .   S
    Zr6    O117      0.99257      .   S
    Zr40   O117      0.99257      .   S
    Zr6    O118      0.99407      .   S
    Zr58   O118      0.99407      .   S
    Zr7    O119      0.81610      .   S
    Zr55   O119      0.81610      .   S
    Zr7    O120      0.96032      .   S
    Zr41   O120      0.96032      .   S
    Zr7    O121      0.99411      .   S
    Zr59   O121      0.99411      .   S
    Zr41   O122      0.65664      .   S
    Zr13   O122      0.65664      .   S
    Zr36   O123      0.63854      .   S
    Zr12   O123      0.63854      .   S
    Zr37   O124      0.63871      .   S
    Zr13   O124      0.63871      .   S
    Zr40   O125      0.63963      .   S
    Zr12   O125      0.63963      .   S
    Zr58   O126      0.63861      .   S
    Zr22   O126      0.63861      .   S
    Zr59   O127      0.63861      .   S
    Zr23   O127      0.63861      .   S
    Zr62   O128      0.64003      .   S
    Zr22   O128      0.64003      .   S
    Zr63   O129      0.63987      .   S
    Zr23   O129      0.63987      .   S
    Zr14   O130      0.63978      .   S
    Zr42   O130      0.63978      .   S
    Zr14   O131      0.63855      .   S
    Zr38   O131      0.63855      .   S
    Zr15   O132      0.63991      .   S
    Zr43   O132      0.63991      .   S
    Zr15   O133      0.63855      .   S
    Zr39   O133      0.63855      .   S
    Zr20   O134      0.63983      .   S
    Zr60   O134      0.63983      .   S
    Zr20   O135      0.63868      .   S
    Zr56   O135      0.63868      .   S
    Zr21   O136      0.63986      .   S
    Zr61   O136      0.63986      .   S
    Zr21   O137      0.63871      .   S
    Zr57   O137      0.63871      .   S
    Zr39   O138      0.99438      .   S
    Zr3    O138      0.99438      .   S
    Zr38   O139      0.99441      .   S
    Zr2    O139      0.99441      .   S
    Zr60   O140      0.99269      .   S
    Zr2    O140      0.99269      .   S
    Zr61   O141      0.99262      .   S
    Zr3    O141      0.99262      .   S
    Zr34   O142      0.81617      .   S
    Zr2    O142      0.81617      .   S
    Zr35   O143      0.81615      .   S
    Zr3    O143      0.81615      .   S
    N144   O145      1.07129      .   S
    Zr16   O145      1.81499      .   S
    N144   O146      1.07136      .   S
    Zr18   O146      1.81536      .   S
    N147   O148      1.07020      .   S
    Zr20   O148      1.81651      .   S
    N147   O149      1.07101      .   S
    Zr22   O149      1.81434      .   S
    N150   O151      1.07136  1_565   S
    Zr12   O151      1.81582      .   S
    N150   O152      1.07116      .   S
    Zr14   O152      1.81503      .   S
    N153   O154      1.07109  1_565   S
    Zr13   O154      1.81502      .   S
    N153   O155      1.07109      .   S
    Zr15   O155      1.81518      .   S
    N156   O157      1.07135  1_545   S
    Zr8    O157      1.81544      .   S
    N156   O158      1.07136      .   S
    Zr10   O158      1.81540      .   S
    N159   O160      1.07104      .   S
    Zr23   O160      1.81489      .   S
    N159   O161      1.07107      .   S
    Zr21   O161      1.81501      .   S
    N162   O163      1.07133  1_545   S
    Zr9    O163      1.81541      .   S
    N162   O164      1.07123      .   S
    Zr11   O164      1.81559      .   S
    N165   O166      1.07138      .   S
    Zr19   O166      1.81538      .   S
    N165   O167      1.07148      .   S
    Zr17   O167      1.81565      .   S
