# CIF file generated by openbabel 2.4.90, see http://openbabel.sf.net
data_I
_chemical_name_common ''
_cell_length_a 12.819
_cell_length_b 14.257
_cell_length_c 20.172
_cell_angle_alpha 89.872
_cell_angle_beta 95.078
_cell_angle_gamma 90.126
_space_group_name_H-M_alt 'P 1'
_space_group_name_Hall 'P 1'
loop_
    _symmetry_equiv_pos_as_xyz
    x,y,z
loop_
    _atom_site_label
    _atom_site_type_symbol
    _atom_site_fract_x
    _atom_site_fract_y
    _atom_site_fract_z
    _atom_site_occupancy
    H0      H    0.05398   0.30147   0.67276   1.000
    H1      H    0.55471   0.30068   0.67286   1.000
    H2      H    0.12210   0.20805   0.77245   1.000
    H3      H    0.62319   0.20739   0.77256   1.000
    H4      H    0.42912   0.32306   0.75752   1.000
    H5      H    0.92949   0.32420   0.75815   1.000
    H6      H    0.36264   0.41224   0.65594   1.000
    H7      H    0.86271   0.41322   0.65650   1.000
    H8      H    0.36289   0.37081   0.96442   1.000
    H9      H    0.86153   0.37060   0.96468   1.000
    H10     H    0.06817   0.46657   0.02536   1.000
    H11     H    0.56702   0.46629   0.02592   1.000
    H12     H    0.44483   0.80367   0.82658   1.000
    H13     H    0.94476   0.80275   0.82719   1.000
    H14     H    0.37696   0.71092   0.72660   1.000
    H15     H    0.87706   0.70938   0.72752   1.000
    H16     H    0.06971   0.82403   0.74172   1.000
    H17     H    0.57002   0.82349   0.74151   1.000
    H18     H    0.13589   0.91231   0.84364   1.000
    H19     H    0.63608   0.91270   0.84302   1.000
    H20     H    0.13834   0.86853   0.53499   1.000
    H21     H    0.63717   0.86939   0.53501   1.000
    H22     H    0.43166   0.96956   0.47422   1.000
    H23     H    0.93099   0.96789   0.47339   1.000
    H24     H    0.44427   0.69844   0.32733   1.000
    H25     H    0.94450   0.69886   0.32773   1.000
    H26     H    0.37633   0.79187   0.22750   1.000
    H27     H    0.87695   0.79244   0.22793   1.000
    H28     H    0.06933   0.67663   0.24215   1.000
    H29     H    0.56981   0.67717   0.24191   1.000
    H30     H    0.13560   0.58748   0.34380   1.000
    H31     H    0.63575   0.58771   0.34352   1.000
    H32     H    0.13820   0.62944   0.03521   1.000
    H33     H    0.63689   0.62916   0.03562   1.000
    H34     H    0.43280   0.53367   0.97415   1.000
    H35     H    0.93154   0.53347   0.97453   1.000
    H36     H    0.05399   0.19639   0.17291   1.000
    H37     H    0.55385   0.19718   0.17251   1.000
    H38     H    0.12136   0.28930   0.27292   1.000
    H39     H    0.62108   0.29051   0.27231   1.000
    H40     H    0.42879   0.17624   0.25847   1.000
    H41     H    0.92862   0.17749   0.25830   1.000
    H42     H    0.36309   0.08772   0.15655   1.000
    H43     H    0.86302   0.08836   0.15663   1.000
    H44     H    0.35961   0.13146   0.46521   1.000
    H45     H    0.86070   0.13050   0.46460   1.000
    H46     H    0.06627   0.03041   0.52595   1.000
    H47     H    0.56690   0.03201   0.52633   1.000
    C48     C    0.20368   0.36337   0.65833   1.000
    C49     C    0.70407   0.36342   0.65867   1.000
    C50     C    0.13625   0.30533   0.69132   1.000
    C51     C    0.63690   0.30497   0.69154   1.000
    C52     C    0.17420   0.25317   0.74675   1.000
    C53     C    0.67506   0.25289   0.74697   1.000
    C54     C    0.28003   0.25962   0.77096   1.000
    C55     C    0.78079   0.25986   0.77130   1.000
    C56     C    0.34749   0.31757   0.73792   1.000
    C57     C    0.84795   0.31828   0.73843   1.000
    C58     C    0.30999   0.36787   0.68174   1.000
    C59     C    0.81026   0.36851   0.68226   1.000
    C60     C    0.21065   0.40842   0.99409   1.000
    C61     C    0.70934   0.40821   0.99441   1.000
    C62     C    0.31393   0.42739   0.98013   1.000
    C63     C    0.81263   0.42719   0.98044   1.000
    C64     C    0.14779   0.48186   0.01389   1.000
    C65     C    0.64656   0.48162   0.01433   1.000
    C66     C    0.29491   0.86428   0.84117   1.000
    C67     C    0.79497   0.86406   0.84119   1.000
    C68     C    0.36256   0.80718   0.80800   1.000
    C69     C    0.86258   0.80641   0.80843   1.000
    C70     C    0.32478   0.75546   0.75243   1.000
    C71     C    0.82488   0.75429   0.75303   1.000
    C72     C    0.21891   0.76149   0.72831   1.000
    C73     C    0.71912   0.76039   0.72865   1.000
    C74     C    0.15132   0.81877   0.76130   1.000
    C75     C    0.65154   0.81817   0.76133   1.000
    C76     C    0.18863   0.86855   0.81772   1.000
    C77     C    0.68881   0.86846   0.81747   1.000
    C78     C    0.29003   0.90883   0.50543   1.000
    C79     C    0.78897   0.90855   0.50502   1.000
    C80     C    0.18652   0.92606   0.51946   1.000
    C81     C    0.68582   0.92653   0.51940   1.000
    C82     C    0.35191   0.98346   0.48588   1.000
    C83     C    0.85154   0.98257   0.48527   1.000
    C84     C    0.29454   0.63646   0.34160   1.000
    C85     C    0.79467   0.63687   0.34164   1.000
    C86     C    0.36204   0.69454   0.30868   1.000
    C87     C    0.86234   0.69499   0.30892   1.000
    C88     C    0.32419   0.74669   0.25321   1.000
    C89     C    0.82472   0.74725   0.25347   1.000
    C90     C    0.21841   0.74020   0.22890   1.000
    C91     C    0.71902   0.74074   0.22901   1.000
    C92     C    0.15091   0.68218   0.26184   1.000
    C93     C    0.65132   0.68268   0.26176   1.000
    C94     C    0.18829   0.63190   0.31806   1.000
    C95     C    0.68852   0.63224   0.31792   1.000
    C96     C    0.29044   0.59177   0.00558   1.000
    C97     C    0.78910   0.59159   0.00588   1.000
    C98     C    0.18712   0.57283   0.01949   1.000
    C99     C    0.68585   0.57259   0.01990   1.000
    C100    C    0.35323   0.51836   0.98569   1.000
    C101    C    0.85194   0.51816   0.98605   1.000
    C102    C    0.20403   0.13576   0.15867   1.000
    C103    C    0.70392   0.13640   0.15852   1.000
    C104    C    0.13618   0.19290   0.19166   1.000
    C105    C    0.63603   0.19377   0.19129   1.000
    C106    C    0.17369   0.24476   0.24720   1.000
    C107    C    0.67346   0.24584   0.24677   1.000
    C108    C    0.27945   0.23870   0.27158   1.000
    C109    C    0.77922   0.24000   0.27118   1.000
    C110    C    0.34727   0.18147   0.23865   1.000
    C111    C    0.84709   0.18257   0.23845   1.000
    C112    C    0.31021   0.13153   0.18232   1.000
    C113    C    0.81010   0.13235   0.18223   1.000
    C114    C    0.20789   0.09115   0.49472   1.000
    C115    C    0.70892   0.09135   0.49472   1.000
    C116    C    0.31141   0.07392   0.48071   1.000
    C117    C    0.81206   0.07336   0.48030   1.000
    C118    C    0.14601   0.01652   0.51429   1.000
    C119    C    0.64634   0.01732   0.51444   1.000
loop_
    _geom_bond_atom_site_label_1
    _geom_bond_atom_site_label_2
    _geom_bond_distance
    _geom_bond_site_symmetry_2
    _ccdc_geom_bond_type
    C96    C98       1.40350      .   S
    C96    C100      1.40252  1_554   S
    C97    C99       1.40337      .   S
    C97    C101      1.40272  1_554   S
    C64    C98       1.39160      .   S
    C64    H10       1.08783      .   S
    C64    C60       1.40273  1_554   S
    C65    C99       1.39151      .   S
    C65    H11       1.08778      .   S
    C65    C61       1.40253  1_554   S
    C98    H32       1.08801      .   S
    C99    H33       1.08792      .   S
    H42    C112      1.08880      .   S
    H43    C113      1.08879      .   S
    C103   C113      1.40347      .   S
    C103   C105      1.40380      .   S
    C102   C112      1.40333      .   S
    C102   C104      1.40386      .   S
    H37    C105      1.08874      .   S
    H36    C104      1.08875      .   S
    C113   C111      1.38948      .   S
    C112   C110      1.38929      .   S
    C105   C107      1.39314      .   S
    C104   C106      1.39278      .   S
    H26    C88       1.09019      .   S
    H27    C89       1.08931      .   S
    C90    C88       1.40346      .   S
    C90    C92       1.40382      .   S
    C91    C89       1.40333      .   S
    C91    C93       1.40373      .   S
    C111   H41       1.08810      .   S
    C111   C109      1.40371      .   S
    C110   H40       1.08804      .   S
    C110   C108      1.40376      .   S
    H29    C93       1.08809      .   S
    H28    C92       1.08806      .   S
    C107   C109      1.40344      .   S
    C107   H39       1.08921      .   S
    C106   C108      1.40336      .   S
    C106   H38       1.08963      .   S
    C88    C86       1.39352      .   S
    C89    C87       1.39323      .   S
    C93    C95       1.38930      .   S
    C92    C94       1.38975      .   S
    C86    H24       1.08879      .   S
    C86    C84       1.40400      .   S
    C87    H25       1.08871      .   S
    C87    C85       1.40382      .   S
    C95    C85       1.40338      .   S
    C95    H31       1.08886      .   S
    C94    C84       1.40356      .   S
    C94    H30       1.08883      .   S
    H45    C117      1.08830      .   S
    H44    C116      1.08775      .   S
    H23    C83       1.08765      .   S
    H22    C82       1.08774      .   S
    C117   C83       1.39104  1_545   S
    C117   C115      1.40293      .   S
    C116   C82       1.39159  1_545   S
    C116   C114      1.40340      .   S
    C83    C79       1.40236      .   S
    C82    C78       1.40241      .   S
    C115   C119      1.40226      .   S
    C114   C118      1.40245      .   S
    C79    C81       1.40283      .   S
    C78    C80       1.40337      .   S
    C118   C80       1.39159  1_545   S
    C118   H46       1.08772      .   S
    C119   C81       1.39098  1_545   S
    C119   H47       1.08764      .   S
    C81    H21       1.08776      .   S
    C80    H20       1.08780      .   S
    H6     C58       1.08881      .   S
    H7     C59       1.08942      .   S
    C48    C58       1.40355      .   S
    C48    C50       1.40392      .   S
    C49    C59       1.40353      .   S
    C49    C51       1.40384      .   S
    H0     C50       1.08876      .   S
    H1     C51       1.08877      .   S
    C58    C56       1.38970      .   S
    C59    C57       1.38962      .   S
    C50    C52       1.39332      .   S
    C51    C53       1.39356      .   S
    H14    C70       1.08956      .   S
    H15    C71       1.08926      .   S
    C72    C70       1.40331      .   S
    C72    C74       1.40290      .   S
    C73    C71       1.40351      .   S
    C73    C75       1.40368      .   S
    C56    H4        1.08812      .   S
    C56    C54       1.40391      .   S
    C57    H5        1.08810      .   S
    C57    C55       1.40368      .   S
    H17    C75       1.08807      .   S
    H16    C74       1.08763      .   S
    C52    C54       1.40351      .   S
    C52    H2        1.08931      .   S
    C53    C55       1.40346      .   S
    C53    H3        1.08927      .   S
    C70    C68       1.39319      .   S
    C71    C69       1.39322      .   S
    C74    C76       1.39051      .   S
    C75    C77       1.38963      .   S
    C68    H12       1.08876      .   S
    C68    C66       1.40385      .   S
    C69    H13       1.08875      .   S
    C69    C67       1.40373      .   S
    C77    C67       1.40348      .   S
    C77    H19       1.08870      .   S
    C76    C66       1.40344      .   S
    C76    H18       1.08884      .   S
    H8     C62       1.08791      .   S
    H9     C63       1.08804      .   S
    H34    C100      1.08771      .   S
    H35    C101      1.08786      .   S
    C62    C100      1.39147      .   S
    C62    C60       1.40336      .   S
    C63    C101      1.39163      .   S
    C63    C61       1.40346      .   S
