# CIF file generated by openbabel 2.4.90, see http://openbabel.sf.net
data_I
_chemical_name_common ''
_cell_length_a 12.819
_cell_length_b 14.257
_cell_length_c 20.172
_cell_angle_alpha 89.872
_cell_angle_beta 95.078
_cell_angle_gamma 90.126
_space_group_name_H-M_alt 'P 1'
_space_group_name_Hall 'P 1'
loop_
    _symmetry_equiv_pos_as_xyz
    x,y,z
loop_
    _atom_site_label
    _atom_site_type_symbol
    _atom_site_fract_x
    _atom_site_fract_y
    _atom_site_fract_z
    _atom_site_occupancy
    Zn0     Zn   0.99468   0.19382   0.93877   1.000
    Zn1     Zn   0.25250   0.60511   0.54419   1.000
    Zn2     Zn   0.75163   0.60479   0.54418   1.000
    Zn3     Zn   0.00510   0.69531   0.56102   1.000
    Zn4     Zn   0.50643   0.69483   0.56077   1.000
    Zn5     Zn   0.24750   0.10372   0.95568   1.000
    Zn6     Zn   0.74692   0.10380   0.95560   1.000
    Zn7     Zn   0.00498   0.80620   0.06121   1.000
    Zn8     Zn   0.50641   0.80627   0.06118   1.000
    Zn9     Zn   0.24539   0.39486   0.45580   1.000
    Zn10    Zn   0.74625   0.39517   0.45585   1.000
    Zn11    Zn   0.49279   0.30470   0.43903   1.000
    Zn12    Zn   0.99142   0.30513   0.43932   1.000
    Zn13    Zn   0.25263   0.89603   0.04436   1.000
    Zn14    Zn   0.75186   0.89642   0.04425   1.000
    Zn15    Zn   0.99980   0.50102   0.49996   1.000
    Zn16    Zn   0.49807   0.49886   0.50017   1.000
    Zn17    Zn   0.99987   0.99997   0.99993   1.000
    Zn18    Zn   0.49872   0.99999   0.99997   1.000
    H19     H    0.10207   0.64502   0.46201   1.000
    Zn20    Zn   0.49338   0.19380   0.93868   1.000
    H21     H    0.60145   0.64221   0.46180   1.000
    H22     H    0.41914   0.55336   0.60894   1.000
    H23     H    0.91915   0.55304   0.60857   1.000
    H24     H    0.39696   0.14362   0.03807   1.000
    H25     H    0.89746   0.14341   0.03778   1.000
    H26     H    0.07979   0.05191   0.89106   1.000
    H27     H    0.57914   0.05179   0.89121   1.000
    H28     H    0.39576   0.35483   0.53807   1.000
    H29     H    0.89633   0.35772   0.53831   1.000
    H30     H    0.07868   0.44660   0.39118   1.000
    H31     H    0.57871   0.44705   0.39159   1.000
    H32     H    0.10221   0.85637   0.96215   1.000
    H33     H    0.60232   0.85696   0.96182   1.000
    H34     H    0.42019   0.94798   0.10899   1.000
    H35     H    0.91972   0.94828   0.10861   1.000
    C36     C    0.16356   0.42134   0.59958   1.000
    C37     C    0.66391   0.42118   0.59980   1.000
    C38     C    0.32119   0.20790   0.83277   1.000
    C39     C    0.82221   0.20804   0.83302   1.000
    O40     O    0.93286   0.93381   0.91140   1.000
    O41     O    0.08372   0.73189   0.64426   1.000
    O42     O    0.58354   0.72849   0.64510   1.000
    O43     O    0.23617   0.65064   0.64157   1.000
    C44     C    0.16748   0.31100   0.98573   1.000
    C45     C    0.66599   0.31087   0.98584   1.000
    C46     C    0.33479   0.92140   0.90022   1.000
    C47     C    0.83475   0.92151   0.90016   1.000
    C48     C    0.17766   0.70994   0.66657   1.000
    C49     C    0.67820   0.70839   0.66702   1.000
    C50     C    0.33411   0.81183   0.51339   1.000
    C51     C    0.83245   0.81149   0.51315   1.000
    C52     C    0.33449   0.57857   0.40042   1.000
    C53     C    0.83438   0.57883   0.40041   1.000
    C54     C    0.17731   0.79194   0.16707   1.000
    C55     C    0.67815   0.79261   0.16725   1.000
    C56     C    0.33380   0.68911   0.01413   1.000
    C57     C    0.83229   0.68902   0.01426   1.000
    C58     C    0.16434   0.07839   0.09969   1.000
    C59     C    0.66436   0.07879   0.09961   1.000
    C60     C    0.32042   0.29026   0.33337   1.000
    C61     C    0.81983   0.29177   0.33296   1.000
    C62     C    0.16379   0.18814   0.48671   1.000
    C63     C    0.66544   0.18843   0.48670   1.000
    O64     O    0.23185   0.45672   0.56344   1.000
    O65     O    0.73240   0.45651   0.56377   1.000
    O66     O    0.06535   0.43268   0.58825   1.000
    O67     O    0.56563   0.43219   0.58839   1.000
    O68     O    0.41522   0.22979   0.85509   1.000
    O69     O    0.91618   0.23014   0.85532   1.000
    O70     O    0.26240   0.14856   0.85794   1.000
    O71     O    0.76370   0.14842   0.85810   1.000
    O72     O    0.23105   0.24320   0.98897   1.000
    O73     O    0.72942   0.24300   0.98902   1.000
    O74     O    0.06691   0.30470   0.97511   1.000
    O75     O    0.56539   0.30473   0.97515   1.000
    O76     O    0.09881   0.62021   0.50691   1.000
    O77     O    0.59841   0.61798   0.50688   1.000
    O78     O    0.40979   0.58362   0.56542   1.000
    O79     O    0.90985   0.58379   0.56522   1.000
    O80     O    0.26634   0.95527   0.93670   1.000
    O81     O    0.76607   0.95546   0.93646   1.000
    O82     O    0.43289   0.93373   0.91143   1.000
    O83     O    0.73786   0.65045   0.64162   1.000
    O84     O    0.27106   0.74343   0.50883   1.000
    O85     O    0.76921   0.74320   0.50890   1.000
    O86     O    0.43462   0.80645   0.52506   1.000
    O87     O    0.93293   0.80615   0.52473   1.000
    O88     O    0.40037   0.11873   0.99330   1.000
    O89     O    0.90073   0.11882   0.99291   1.000
    O90     O    0.08958   0.08245   0.93430   1.000
    O91     O    0.58898   0.08266   0.93441   1.000
    O92     O    0.26610   0.54324   0.43650   1.000
    O93     O    0.76572   0.54348   0.43629   1.000
    O94     O    0.43270   0.56723   0.41186   1.000
    O95     O    0.93263   0.56764   0.41188   1.000
    O96     O    0.08334   0.76997   0.14472   1.000
    O97     O    0.58392   0.77121   0.14500   1.000
    O98     O    0.23602   0.85140   0.14198   1.000
    O99     O    0.73738   0.85144   0.14190   1.000
    O100    O    0.27036   0.75698   0.01091   1.000
    O101    O    0.76875   0.75684   0.01102   1.000
    O102    O    0.43438   0.69526   0.02486   1.000
    O103    O    0.93288   0.69528   0.02485   1.000
    O104    O    0.39911   0.37973   0.49320   1.000
    O105    O    0.89947   0.38195   0.49324   1.000
    O106    O    0.08811   0.41630   0.43469   1.000
    O107    O    0.58809   0.41623   0.43490   1.000
    O108    O    0.23289   0.04453   0.06320   1.000
    O109    O    0.73316   0.04481   0.06341   1.000
    O110    O    0.06624   0.06610   0.08847   1.000
    O111    O    0.56630   0.06619   0.08841   1.000
    O112    O    0.41434   0.26834   0.35575   1.000
    O113    O    0.91441   0.27158   0.35499   1.000
    O114    O    0.26170   0.34933   0.35840   1.000
    O115    O    0.76001   0.34954   0.35838   1.000
    O116    O    0.22682   0.25655   0.49124   1.000
    O117    O    0.72869   0.25670   0.49100   1.000
    O118    O    0.06329   0.19350   0.47498   1.000
    O119    O    0.56495   0.19380   0.47524   1.000
    O120    O    0.09888   0.88109   0.00698   1.000
    O121    O    0.59893   0.88164   0.00660   1.000
    O122    O    0.41019   0.91727   0.06574   1.000
    O123    O    0.90992   0.91753   0.06536   1.000
loop_
    _geom_bond_atom_site_label_1
    _geom_bond_atom_site_label_2
    _geom_bond_distance
    _geom_bond_site_symmetry_2
    _ccdc_geom_bond_type
    O121   Zn8       1.99841      .   S
    O121   H33       0.97472  1_554   S
    O120   Zn7       2.00196      .   S
    O120   H32       0.97578  1_554   S
    O100   C56       1.26324      .   S
    O100   Zn13      2.11467      .   S
    O101   C57       1.26344      .   S
    O101   Zn14      2.11897      .   S
    C56    O102      1.29128      .   S
    C57    O103      1.29120      .   S
    O103   Zn7       1.94211  1_655   S
    O102   Zn8       1.94256      .   S
    H25    O89       0.97575  1_554   S
    H24    O88       0.97566  1_554   S
    Zn14   O109      2.16904  1_565   S
    Zn14   O99       2.09388      .   S
    Zn13   O108      2.17113  1_565   S
    Zn13   O98       2.09661      .   S
    Zn8    O122      2.01572      .   S
    Zn8    O97       1.94861      .   S
    Zn7    O123      2.00953  1_455   S
    Zn7    O96       1.95256      .   S
    O108   C58       1.29037      .   S
    O109   C59       1.28968      .   S
    O123   H35       0.97525      .   S
    O122   H34       0.97516      .   S
    O111   C59       1.26968      .   S
    O111   Zn18      2.13411  1_544   S
    O110   C58       1.26969      .   S
    O110   Zn17      2.13016  1_444   S
    O99    C55       1.26708      .   S
    O98    C54       1.26649      .   S
    O96    C54       1.28663      .   S
    O97    C55       1.28710      .   S
    C61    O113      1.28684      .   S
    C61    O115      1.26635      .   S
    C60    O112      1.28671      .   S
    C60    O114      1.26603      .   S
    O113   Zn12      1.94967      .   S
    O112   Zn11      1.95058      .   S
    O115   Zn10      2.09472      .   S
    O114   Zn9       2.09864      .   S
    H30    O106      0.97536      .   S
    H31    O107      0.97506      .   S
    C53    O95       1.27055      .   S
    C53    O93       1.28913      .   S
    C52    O94       1.27027      .   S
    C52    O92       1.28896      .   S
    O94    Zn16      2.13478      .   S
    O95    Zn15      2.12738      .   S
    O106   Zn12      2.01704  1_455   S
    O107   Zn11      2.00921      .   S
    O93    Zn10      2.16803      .   S
    O92    Zn9       2.17021      .   S
    Zn11   O119      1.94176      .   S
    Zn11   O104      2.00588      .   S
    Zn12   O118      1.94510  1_655   S
    Zn12   O105      2.00241      .   S
    Zn9    O116      2.11606      .   S
    Zn10   O117      2.11451      .   S
    H21    O77       0.97599      .   S
    H19    O76       0.97592      .   S
    O118   C62       1.29148      .   S
    O119   C63       1.29094      .   S
    C63    O117      1.26362      .   S
    C62    O116      1.26342      .   S
    O104   H28       0.97595      .   S
    O105   H29       0.97595      .   S
    Zn15   O66       2.13498  1_655   S
    Zn16   O67       2.13156      .   S
    O77    Zn4       2.00252      .   S
    O76    Zn3       2.00596      .   S
    O84    C50       1.26344      .   S
    O84    Zn1       2.11567      .   S
    O85    C51       1.26369      .   S
    O85    Zn2       2.11463      .   S
    C51    O87       1.29091      .   S
    C50    O86       1.29152      .   S
    O87    Zn3       1.94179  1_655   S
    O86    Zn4       1.94499      .   S
    Zn2    O65       2.16730      .   S
    Zn2    O83       2.09431      .   S
    Zn1    O64       2.16991      .   S
    Zn1    O43       2.09828      .   S
    Zn4    O78       2.01704      .   S
    Zn4    O42       1.95066      .   S
    Zn3    O79       2.00871  1_455   S
    Zn3    O41       1.95172      .   S
    O64    C36       1.28899      .   S
    O65    C37       1.28925      .   S
    O79    H23       0.97525      .   S
    O78    H22       0.97522      .   S
    O66    C36       1.27017      .   S
    O67    C37       1.27055      .   S
    O43    C48       1.26622      .   S
    O83    C49       1.26635      .   S
    O41    C48       1.28678      .   S
    O42    C49       1.28686      .   S
    C38    O68       1.28682      .   S
    C38    O70       1.26666      .   S
    C39    O69       1.28673      .   S
    C39    O71       1.26635      .   S
    O68    Zn20      1.95185      .   S
    O69    Zn0       1.95268      .   S
    O70    Zn5       2.09593      .   S
    O71    Zn6       2.09472      .   S
    H26    O90       0.97379      .   S
    H27    O91       0.97519      .   S
    C47    O40       1.26984      .   S
    C47    O81       1.28971      .   S
    C46    O82       1.26986      .   S
    C46    O80       1.28930      .   S
    O40    Zn17      2.13291      .   S
    O82    Zn18      2.12875      .   S
    O90    Zn0       2.00929  1_455   S
    O91    Zn20      2.01192      .   S
    O81    Zn6       2.16903  1_565   S
    O80    Zn5       2.16946  1_565   S
    Zn20   O75       1.94254      .   S
    Zn20   O88       2.00063      .   S
    Zn0    O74       1.94223  1_655   S
    Zn0    O89       2.00209      .   S
    Zn6    O73       2.11615      .   S
    Zn5    O72       2.11720      .   S
    O74    C44       1.29102      .   S
    O75    C45       1.29134      .   S
    C44    O72       1.26354      .   S
    C45    O73       1.26322      .   S
    O76    Zn1       2.05721      .   S
    O76    Zn15      2.11613  1_455   S
    O77    Zn2       2.04905      .   S
    O77    Zn16      2.12554      .   S
    O78    Zn1       2.04753      .   S
    O78    Zn16      2.17943      .   S
    O79    Zn2       2.05745      .   S
    O79    Zn15      2.17643      .   S
    O88    Zn5       2.04882      .   S
    O88    Zn18      2.10994  1_545   S
    O89    Zn6       2.05821      .   S
    O89    Zn17      2.11731  1_545   S
    O90    Zn5       2.05410      .   S
    O90    Zn17      2.17128  1_445   S
    O91    Zn6       2.05358      .   S
    O91    Zn18      2.17596  1_545   S
    O104   Zn9       2.05834      .   S
    O104   Zn16      2.11507      .   S
    O105   Zn10      2.04965      .   S
    O105   Zn15      2.12490      .   S
    O106   Zn9       2.04693      .   S
    O106   Zn15      2.17962  1_455   S
    O107   Zn10      2.05660      .   S
    O107   Zn16      2.17595      .   S
    O120   Zn13      2.05777      .   S
    O120   Zn17      2.11654  1_454   S
    O121   Zn14      2.04930      .   S
    O121   Zn18      2.11965  1_554   S
    O122   Zn13      2.04964      .   S
    O122   Zn18      2.16623  1_554   S
    O123   Zn14      2.05490      .   S
    O123   Zn17      2.17013  1_554   S
