# CIF file generated by openbabel 2.4.90, see http://openbabel.sf.net
data_I
_chemical_name_common ''
_cell_length_a 12.819
_cell_length_b 14.257
_cell_length_c 20.172
_cell_angle_alpha 89.872
_cell_angle_beta 95.078
_cell_angle_gamma 90.126
_space_group_name_H-M_alt 'P 1'
_space_group_name_Hall 'P 1'
loop_
    _symmetry_equiv_pos_as_xyz
    x,y,z
loop_
    _atom_site_label
    _atom_site_type_symbol
    _atom_site_fract_x
    _atom_site_fract_y
    _atom_site_fract_z
    _atom_site_occupancy
    Zr0     Zr   0.49338   0.19380   0.93868   1.000
    Zr1     Zr   0.99468   0.19382   0.93877   1.000
    Zr2     Zr   0.25250   0.60511   0.54419   1.000
    Zr3     Zr   0.75163   0.60479   0.54418   1.000
    Zr4     Zr   0.00510   0.69531   0.56102   1.000
    Zr5     Zr   0.50643   0.69483   0.56077   1.000
    Zr6     Zr   0.24750   0.10372   0.95568   1.000
    Zr7     Zr   0.74692   0.10380   0.95560   1.000
    Zr8     Zr   0.00498   0.80620   0.06121   1.000
    Zr9     Zr   0.50641   0.80627   0.06118   1.000
    Zr10    Zr   0.24539   0.39486   0.45580   1.000
    Zr11    Zr   0.74625   0.39517   0.45585   1.000
    Zr12    Zr   0.49279   0.30470   0.43903   1.000
    Zr13    Zr   0.99142   0.30513   0.43932   1.000
    Zr14    Zr   0.25263   0.89603   0.04436   1.000
    Zr15    Zr   0.75186   0.89642   0.04425   1.000
    Zr16    Zr   0.99980   0.50102   0.49996   1.000
    Zr17    Zr   0.49807   0.49886   0.50017   1.000
    Zr18    Zr   0.99987   0.99997   0.99993   1.000
    Zr19    Zr   0.49872   0.99999   0.99997   1.000
    Zr20    Zr   0.10207   0.64502   0.46201   1.000
    Zr21    Zr   0.60145   0.64221   0.46180   1.000
    Zr22    Zr   0.41914   0.55336   0.60894   1.000
    Zr23    Zr   0.91915   0.55304   0.60857   1.000
    Zr24    Zr   0.39696   0.14362   0.03807   1.000
    Zr25    Zr   0.89746   0.14341   0.03778   1.000
    Zr26    Zr   0.07979   0.05191   0.89106   1.000
    Zr27    Zr   0.57914   0.05179   0.89121   1.000
    Zr28    Zr   0.39576   0.35483   0.53807   1.000
    Zr29    Zr   0.89633   0.35772   0.53831   1.000
    Zr30    Zr   0.07868   0.44660   0.39118   1.000
    Zr31    Zr   0.57871   0.44705   0.39159   1.000
    Zr32    Zr   0.10221   0.85637   0.96215   1.000
    Zr33    Zr   0.60232   0.85696   0.96182   1.000
    Zr34    Zr   0.42019   0.94798   0.10899   1.000
    Zr35    Zr   0.91972   0.94828   0.10861   1.000
    Zr36    Zr   0.16356   0.42134   0.59958   1.000
    Zr37    Zr   0.66391   0.42118   0.59980   1.000
    Zr38    Zr   0.32119   0.20790   0.83277   1.000
    Zr39    Zr   0.82221   0.20804   0.83302   1.000
    Zr40    Zr   0.16748   0.31100   0.98573   1.000
    Zr41    Zr   0.66599   0.31087   0.98584   1.000
    Zr42    Zr   0.33479   0.92140   0.90022   1.000
    Zr43    Zr   0.83475   0.92151   0.90016   1.000
    Zr44    Zr   0.17766   0.70994   0.66657   1.000
    Zr45    Zr   0.67820   0.70839   0.66702   1.000
    Zr46    Zr   0.33411   0.81183   0.51339   1.000
    Zr47    Zr   0.83245   0.81149   0.51315   1.000
    Zr48    Zr   0.33449   0.57857   0.40042   1.000
    Zr49    Zr   0.83438   0.57883   0.40041   1.000
    Zr50    Zr   0.17731   0.79194   0.16707   1.000
    Zr51    Zr   0.67815   0.79261   0.16725   1.000
    Zr52    Zr   0.33380   0.68911   0.01413   1.000
    Zr53    Zr   0.83229   0.68902   0.01426   1.000
    Zr54    Zr   0.16434   0.07839   0.09969   1.000
    Zr55    Zr   0.66436   0.07879   0.09961   1.000
    Zr56    Zr   0.32042   0.29026   0.33337   1.000
    Zr57    Zr   0.81983   0.29177   0.33296   1.000
    Zr58    Zr   0.16379   0.18814   0.48671   1.000
    Zr59    Zr   0.66544   0.18843   0.48670   1.000
    Zr60    Zr   0.23185   0.45672   0.56344   1.000
    Zr61    Zr   0.73240   0.45651   0.56377   1.000
    Zr62    Zr   0.06535   0.43268   0.58825   1.000
    Zr63    Zr   0.56563   0.43219   0.58839   1.000
    Zr64    Zr   0.41522   0.22979   0.85509   1.000
    Zr65    Zr   0.91618   0.23014   0.85532   1.000
    Zr66    Zr   0.26240   0.14856   0.85794   1.000
    Zr67    Zr   0.76370   0.14842   0.85810   1.000
    Zr68    Zr   0.23105   0.24320   0.98897   1.000
    Zr69    Zr   0.72942   0.24300   0.98902   1.000
    Zr70    Zr   0.06691   0.30470   0.97511   1.000
    Zr71    Zr   0.56539   0.30473   0.97515   1.000
    Zr72    Zr   0.09881   0.62021   0.50691   1.000
    Zr73    Zr   0.59841   0.61798   0.50688   1.000
    Zr74    Zr   0.40979   0.58362   0.56542   1.000
    Zr75    Zr   0.90985   0.58379   0.56522   1.000
    Zr76    Zr   0.26634   0.95527   0.93670   1.000
    Zr77    Zr   0.76607   0.95546   0.93646   1.000
    Zr78    Zr   0.43289   0.93373   0.91143   1.000
    Zr79    Zr   0.93286   0.93381   0.91140   1.000
    Zr80    Zr   0.08372   0.73189   0.64426   1.000
    Zr81    Zr   0.58354   0.72849   0.64510   1.000
    Zr82    Zr   0.23617   0.65064   0.64157   1.000
    Zr83    Zr   0.73786   0.65045   0.64162   1.000
    Zr84    Zr   0.27106   0.74343   0.50883   1.000
    Zr85    Zr   0.76921   0.74320   0.50890   1.000
    Zr86    Zr   0.43462   0.80645   0.52506   1.000
    Zr87    Zr   0.93293   0.80615   0.52473   1.000
    Zr88    Zr   0.40037   0.11873   0.99330   1.000
    Zr89    Zr   0.90073   0.11882   0.99291   1.000
    Zr90    Zr   0.08958   0.08245   0.93430   1.000
    Zr91    Zr   0.58898   0.08266   0.93441   1.000
    Zr92    Zr   0.26610   0.54324   0.43650   1.000
    Zr93    Zr   0.76572   0.54348   0.43629   1.000
    Zr94    Zr   0.43270   0.56723   0.41186   1.000
    Zr95    Zr   0.93263   0.56764   0.41188   1.000
    Zr96    Zr   0.08334   0.76997   0.14472   1.000
    Zr97    Zr   0.58392   0.77121   0.14500   1.000
    Zr98    Zr   0.23602   0.85140   0.14198   1.000
    Zr99    Zr   0.73738   0.85144   0.14190   1.000
    Zr100   Zr   0.27036   0.75698   0.01091   1.000
    Zr101   Zr   0.76875   0.75684   0.01102   1.000
    Zr102   Zr   0.43438   0.69526   0.02486   1.000
    Zr103   Zr   0.93288   0.69528   0.02485   1.000
    Zr104   Zr   0.39911   0.37973   0.49320   1.000
    Zr105   Zr   0.89947   0.38195   0.49324   1.000
    Zr106   Zr   0.08811   0.41630   0.43469   1.000
    Zr107   Zr   0.58809   0.41623   0.43490   1.000
    Zr108   Zr   0.23289   0.04453   0.06320   1.000
    Zr109   Zr   0.73316   0.04481   0.06341   1.000
    Zr110   Zr   0.06624   0.06610   0.08847   1.000
    Zr111   Zr   0.56630   0.06619   0.08841   1.000
    Zr112   Zr   0.41434   0.26834   0.35575   1.000
    Zr113   Zr   0.91441   0.27158   0.35499   1.000
    Zr114   Zr   0.26170   0.34933   0.35840   1.000
    Zr115   Zr   0.76001   0.34954   0.35838   1.000
    Zr116   Zr   0.22682   0.25655   0.49124   1.000
    Zr117   Zr   0.72869   0.25670   0.49100   1.000
    Zr118   Zr   0.06329   0.19350   0.47498   1.000
    Zr119   Zr   0.56495   0.19380   0.47524   1.000
    Zr120   Zr   0.09888   0.88109   0.00698   1.000
    Zr121   Zr   0.59893   0.88164   0.00660   1.000
    Zr122   Zr   0.41019   0.91727   0.06574   1.000
    Zr123   Zr   0.90992   0.91753   0.06536   1.000
    O124    O    0.55267   0.84396   0.03389   1.000
    O125    O    0.60062   0.86930   0.98421   1.000
    O126    O    0.05193   0.84365   0.03410   1.000
    O127    O    0.10054   0.86873   0.98457   1.000
    O128    O    0.30208   0.72305   0.01252   1.000
    O129    O    0.26149   0.82651   0.02764   1.000
    O130    O    0.80052   0.72293   0.01264   1.000
    O131    O    0.76030   0.82663   0.02764   1.000
    O132    O    0.38409   0.69218   0.01950   1.000
    O133    O    0.88258   0.69215   0.01956   1.000
    O134    O    0.96893   0.75074   0.04303   1.000
    O135    O    0.47040   0.75077   0.04302   1.000
    O136    O    0.89910   0.13112   0.01535   1.000
    O137    O    0.39867   0.13117   0.01569   1.000
    O138    O    0.74251   0.97061   0.05383   1.000
    O139    O    0.74462   0.87393   0.09308   1.000
    O140    O    0.24276   0.97028   0.05378   1.000
    O141    O    0.24433   0.87372   0.09317   1.000
    O142    O    0.45830   0.86177   0.06346   1.000
    O143    O    0.54517   0.78874   0.10309   1.000
    O144    O    0.95745   0.86187   0.06329   1.000
    O145    O    0.04416   0.78809   0.10297   1.000
    O146    O    0.19861   0.06146   0.08145   1.000
    O147    O    0.69876   0.06180   0.08151   1.000
    O148    O    0.91482   0.93291   0.08699   1.000
    O149    O    0.41519   0.93262   0.08737   1.000
    O150    O    0.61533   0.07249   0.09401   1.000
    O151    O    0.53251   0.03309   0.04419   1.000
    O152    O    0.11529   0.07225   0.09408   1.000
    O153    O    0.03306   0.03304   0.04420   1.000
    O154    O    0.70777   0.82203   0.15458   1.000
    O155    O    0.20667   0.82167   0.15453   1.000
    O156    O    0.13033   0.78096   0.15590   1.000
    O157    O    0.63104   0.78191   0.15613   1.000
    O158    O    0.86712   0.28168   0.34398   1.000
    O159    O    0.78992   0.32065   0.34567   1.000
    O160    O    0.36738   0.27930   0.34456   1.000
    O161    O    0.29106   0.31979   0.34589   1.000
    O162    O    0.95291   0.28836   0.39716   1.000
    O163    O    0.45356   0.28652   0.39739   1.000
    O164    O    0.75313   0.37236   0.40712   1.000
    O165    O    0.25354   0.37209   0.40710   1.000
    O166    O    0.08339   0.43145   0.41294   1.000
    O167    O    0.58340   0.43164   0.41325   1.000
    O168    O    0.88351   0.57324   0.40615   1.000
    O169    O    0.80005   0.56116   0.41835   1.000
    O170    O    0.38360   0.57290   0.40614   1.000
    O171    O    0.30030   0.56091   0.41846   1.000
    O172    O    0.46538   0.53305   0.45602   1.000
    O173    O    0.96622   0.53433   0.45592   1.000
    O174    O    0.03976   0.36072   0.43701   1.000
    O175    O    0.54044   0.36047   0.43697   1.000
    O176    O    0.75598   0.46933   0.44607   1.000
    O177    O    0.25575   0.46905   0.44615   1.000
    O178    O    0.52887   0.24925   0.45714   1.000
    O179    O    0.44595   0.34221   0.46612   1.000
    O180    O    0.02735   0.24931   0.45715   1.000
    O181    O    0.94544   0.34354   0.46628   1.000
    O182    O    0.23611   0.32570   0.47352   1.000
    O183    O    0.73747   0.32594   0.47343   1.000
    O184    O    0.59993   0.63010   0.48434   1.000
    O185    O    0.10044   0.63261   0.48446   1.000
    O186    O    0.11354   0.19082   0.48085   1.000
    O187    O    0.61519   0.19112   0.48097   1.000
    O188    O    0.69707   0.22256   0.48885   1.000
    O189    O    0.19531   0.22235   0.48898   1.000
    O190    O    0.39744   0.36728   0.51564   1.000
    O191    O    0.89790   0.36983   0.51578   1.000
    O192    O    0.03257   0.46685   0.54411   1.000
    O193    O    0.53185   0.46553   0.54428   1.000
    O194    O    0.55242   0.65640   0.53383   1.000
    O195    O    0.05195   0.65776   0.53397   1.000
    O196    O    0.30258   0.77763   0.51111   1.000
    O197    O    0.26178   0.67427   0.52651   1.000
    O198    O    0.80083   0.77735   0.51103   1.000
    O199    O    0.76042   0.67400   0.52654   1.000
    O200    O    0.88269   0.80882   0.51894   1.000
    O201    O    0.38436   0.80914   0.51923   1.000
    O202    O    0.96901   0.75073   0.54288   1.000
    O203    O    0.47052   0.75064   0.54292   1.000
    O204    O    0.74201   0.53065   0.55398   1.000
    O205    O    0.74474   0.62762   0.59290   1.000
    O206    O    0.24217   0.53092   0.55382   1.000
    O207    O    0.24433   0.62787   0.59288   1.000
    O208    O    0.45811   0.63922   0.56310   1.000
    O209    O    0.54499   0.71166   0.60294   1.000
    O210    O    0.95747   0.63955   0.56312   1.000
    O211    O    0.04441   0.71360   0.60264   1.000
    O212    O    0.19770   0.43903   0.58151   1.000
    O213    O    0.69815   0.43885   0.58179   1.000
    O214    O    0.91450   0.56842   0.58690   1.000
    O215    O    0.41446   0.56849   0.58718   1.000
    O216    O    0.11445   0.42701   0.59392   1.000
    O217    O    0.61477   0.42669   0.59410   1.000
    O218    O    0.20692   0.68029   0.65407   1.000
    O219    O    0.70803   0.67942   0.65432   1.000
    O220    O    0.13069   0.72091   0.65542   1.000
    O221    O    0.63087   0.71844   0.65606   1.000
    O222    O    0.36820   0.21885   0.84393   1.000
    O223    O    0.29180   0.17823   0.84536   1.000
    O224    O    0.86920   0.21909   0.84417   1.000
    O225    O    0.79295   0.17823   0.84556   1.000
    O226    O    0.45430   0.21180   0.89689   1.000
    O227    O    0.95543   0.21198   0.89705   1.000
    O228    O    0.25495   0.12614   0.90681   1.000
    O229    O    0.75531   0.12611   0.90685   1.000
    O230    O    0.08468   0.06718   0.91268   1.000
    O231    O    0.58406   0.06723   0.91281   1.000
    O232    O    0.88381   0.92766   0.90578   1.000
    O233    O    0.80041   0.93848   0.91831   1.000
    O234    O    0.38384   0.92756   0.90583   1.000
    O235    O    0.30056   0.93833   0.91846   1.000
    O236    O    0.96637   0.96689   0.95567   1.000
    O237    O    0.46581   0.96686   0.95570   1.000
    O238    O    0.04213   0.13813   0.93654   1.000
    O239    O    0.54118   0.13823   0.93655   1.000
    O240    O    0.75649   0.02963   0.94603   1.000
    O241    O    0.25692   0.02950   0.94619   1.000
    O242    O    0.52938   0.24927   0.95692   1.000
    O243    O    0.44687   0.15626   0.96599   1.000
    O244    O    0.03079   0.24926   0.95694   1.000
    O245    O    0.94771   0.15632   0.96584   1.000
    O246    O    0.73817   0.17340   0.97231   1.000
    O247    O    0.23928   0.17346   0.97233   1.000
    O248    O    0.11719   0.30785   0.98042   1.000
    O249    O    0.61569   0.30780   0.98050   1.000
    O250    O    0.19927   0.27710   0.98735   1.000
    O251    O    0.69771   0.27694   0.98743   1.000
    O252    O    0.17565   0.61266   0.52555   1.000
    O253    O    0.04931   0.56061   0.50344   1.000
    O254    O    0.67502   0.61139   0.52553   1.000
    O255    O    0.54824   0.55842   0.50353   1.000
    O256    O    0.33114   0.59436   0.55481   1.000
    O257    O    0.45393   0.54124   0.53280   1.000
    O258    O    0.83074   0.59429   0.55470   1.000
    O259    O    0.95483   0.54241   0.53259   1.000
    O260    O    0.32393   0.11123   0.97449   1.000
    O261    O    0.44955   0.05936   0.99664   1.000
    O262    O    0.82382   0.11131   0.97426   1.000
    O263    O    0.95030   0.05940   0.99642   1.000
    O264    O    0.16854   0.09309   0.94499   1.000
    O265    O    0.04473   0.04121   0.96712   1.000
    O266    O    0.66795   0.09323   0.94501   1.000
    O267    O    0.54385   0.04132   0.96719   1.000
    O268    O    0.32225   0.38729   0.47450   1.000
    O269    O    0.44859   0.43930   0.49669   1.000
    O270    O    0.82286   0.38856   0.47455   1.000
    O271    O    0.94963   0.44148   0.49660   1.000
    O272    O    0.16675   0.40558   0.44525   1.000
    O273    O    0.04396   0.45866   0.46733   1.000
    O274    O    0.66717   0.40570   0.44538   1.000
    O275    O    0.54308   0.45755   0.46754   1.000
    O276    O    0.17575   0.88856   0.02567   1.000
    O277    O    0.04937   0.94053   0.00346   1.000
    O278    O    0.67539   0.88903   0.02543   1.000
    O279    O    0.54883   0.94081   0.00329   1.000
    O280    O    0.33141   0.90665   0.05505   1.000
    O281    O    0.45446   0.95863   0.03286   1.000
    O282    O    0.83089   0.90698   0.05481   1.000
    O283    O    0.95490   0.95875   0.03265   1.000
    N284    N    0.24195   0.31117   0.71457   1.000
    O285    O    0.27128   0.27247   0.75822   1.000
    O286    O    0.21279   0.35176   0.67176   1.000
    N287    N    0.25052   0.50011   0.99980   1.000
    O288    O    0.28132   0.57028   0.00483   1.000
    O289    O    0.21979   0.42991   0.99486   1.000
    N290    N    0.25685   0.81267   0.78475   1.000
    O291    O    0.22757   0.77419   0.74109   1.000
    O292    O    0.28585   0.85275   0.82772   1.000
    N293    N    0.74164   0.18845   0.21482   1.000
    O294    O    0.71289   0.14802   0.17194   1.000
    O295    O    0.77058   0.22717   0.25844   1.000
    N296    N    0.74894   0.99995   0.49985   1.000
    O297    O    0.77983   0.92998   0.50447   1.000
    O298    O    0.71806   0.06992   0.49528   1.000
    N299    N    0.75698   0.81201   0.78493   1.000
    O300    O    0.72782   0.77320   0.74138   1.000
    O301    O    0.78592   0.85240   0.82780   1.000
    N302    N    0.25639   0.68864   0.28531   1.000
    O303    O    0.28545   0.64808   0.32816   1.000
    O304    O    0.22713   0.72735   0.24165   1.000
    N305    N    0.24181   0.18748   0.21509   1.000
    O306    O    0.21299   0.14728   0.17214   1.000
    O307    O    0.27087   0.22598   0.25878   1.000
    N308    N    0.74251   0.31134   0.71492   1.000
    O309    O    0.77201   0.27264   0.75854   1.000
    O310    O    0.71325   0.35182   0.67208   1.000
    N311    N    0.74924   0.49989   0.00018   1.000
    O312    O    0.71845   0.42972   0.99515   1.000
    O313    O    0.77997   0.57010   0.00512   1.000
    N314    N    0.75676   0.68909   0.28538   1.000
    O315    O    0.78564   0.64847   0.32820   1.000
    O316    O    0.72767   0.72788   0.24176   1.000
    N317    N    0.24896   0.99999   0.50009   1.000
    O318    O    0.28052   0.93016   0.50475   1.000
    O319    O    0.21740   0.06982   0.49540   1.000
loop_
    _geom_bond_atom_site_label_1
    _geom_bond_atom_site_label_2
    _geom_bond_distance
    _geom_bond_site_symmetry_2
    _ccdc_geom_bond_type
    Zr121  O124      0.99920      .   S
    Zr9    O124      0.99920      .   S
    Zr121  O125      0.48736  1_554   S
    Zr33   O125      0.48736      .   S
    Zr120  O126      1.00098      .   S
    Zr8    O126      1.00098      .   S
    Zr120  O127      0.48789  1_554   S
    Zr32   O127      0.48789      .   S
    Zr100  O128      0.63162      .   S
    Zr52   O128      0.63162      .   S
    Zr100  O129      1.05733      .   S
    Zr14   O129      1.05733      .   S
    Zr101  O130      0.63172      .   S
    Zr53   O130      0.63172      .   S
    Zr101  O131      1.05949      .   S
    Zr15   O131      1.05949      .   S
    Zr52   O132      0.64564      .   S
    Zr102  O132      0.64564      .   S
    Zr53   O133      0.64560      .   S
    Zr103  O133      0.64560      .   S
    Zr103  O134      0.97106      .   S
    Zr8    O134      0.97106  1_455   S
    Zr102  O135      0.97128      .   S
    Zr9    O135      0.97128      .   S
    Zr25   O136      0.48788      .   S
    Zr89   O136      0.48788  1_556   S
    Zr24   O137      0.48783      .   S
    Zr88   O137      0.48783  1_556   S
    Zr15   O138      1.08452      .   S
    Zr109  O138      1.08452  1_545   S
    Zr15   O139      1.04694      .   S
    Zr99   O139      1.04694      .   S
    Zr14   O140      1.08557      .   S
    Zr108  O140      1.08557  1_545   S
    Zr14   O141      1.04831      .   S
    Zr98   O141      1.04831      .   S
    Zr9    O142      1.00786      .   S
    Zr122  O142      1.00786      .   S
    Zr9    O143      0.97431      .   S
    Zr97   O143      0.97431      .   S
    Zr8    O144      1.00477  1_455   S
    Zr123  O144      1.00477      .   S
    Zr8    O145      0.97628      .   S
    Zr96   O145      0.97628      .   S
    Zr108  O146      0.64519      .   S
    Zr54   O146      0.64519      .   S
    Zr109  O147      0.64484      .   S
    Zr55   O147      0.64484      .   S
    Zr123  O148      0.48763      .   S
    Zr35   O148      0.48763      .   S
    Zr122  O149      0.48758      .   S
    Zr34   O149      0.48758      .   S
    Zr111  O150      0.63484      .   S
    Zr55   O150      0.63484      .   S
    Zr111  O151      1.06706      .   S
    Zr19   O151      1.06706  1_566   S
    Zr110  O152      0.63484      .   S
    Zr54   O152      0.63484      .   S
    Zr110  O153      1.06508      .   S
    Zr18   O153      1.06508  1_666   S
    Zr99   O154      0.63354      .   S
    Zr51   O154      0.63354      .   S
    Zr98   O155      0.63325      .   S
    Zr50   O155      0.63325      .   S
    Zr96   O156      0.64332      .   S
    Zr50   O156      0.64332      .   S
    Zr97   O157      0.64355      .   S
    Zr51   O157      0.64355      .   S
    Zr57   O158      0.64342      .   S
    Zr113  O158      0.64342      .   S
    Zr57   O159      0.63318      .   S
    Zr115  O159      0.63318      .   S
    Zr56   O160      0.64335      .   S
    Zr112  O160      0.64335      .   S
    Zr56   O161      0.63302      .   S
    Zr114  O161      0.63302      .   S
    Zr113  O162      0.97483      .   S
    Zr13   O162      0.97483      .   S
    Zr112  O163      0.97529      .   S
    Zr12   O163      0.97529      .   S
    Zr115  O164      1.04736      .   S
    Zr11   O164      1.04736      .   S
    Zr114  O165      1.04932      .   S
    Zr10   O165      1.04932      .   S
    Zr30   O166      0.48768      .   S
    Zr106  O166      0.48768      .   S
    Zr31   O167      0.48753      .   S
    Zr107  O167      0.48753      .   S
    Zr49   O168      0.63528      .   S
    Zr95   O168      0.63528      .   S
    Zr49   O169      0.64456      .   S
    Zr93   O169      0.64456      .   S
    Zr48   O170      0.63514      .   S
    Zr94   O170      0.63514      .   S
    Zr48   O171      0.64448      .   S
    Zr92   O171      0.64448      .   S
    Zr94   O172      1.06739      .   S
    Zr17   O172      1.06739      .   S
    Zr95   O173      1.06369      .   S
    Zr16   O173      1.06369      .   S
    Zr106  O174      1.00852      .   S
    Zr13   O174      1.00852  1_655   S
    Zr107  O175      1.00460      .   S
    Zr12   O175      1.00460      .   S
    Zr93   O176      1.08401      .   S
    Zr11   O176      1.08401      .   S
    Zr92   O177      1.08511      .   S
    Zr10   O177      1.08511      .   S
    Zr12   O178      0.97088      .   S
    Zr119  O178      0.97088      .   S
    Zr12   O179      1.00294      .   S
    Zr104  O179      1.00294      .   S
    Zr13   O180      0.97255  1_655   S
    Zr118  O180      0.97255      .   S
    Zr13   O181      1.00120      .   S
    Zr105  O181      1.00120      .   S
    Zr10   O182      1.05803      .   S
    Zr116  O182      1.05803      .   S
    Zr11   O183      1.05726      .   S
    Zr117  O183      1.05726      .   S
    Zr21   O184      0.48799      .   S
    Zr73   O184      0.48799      .   S
    Zr20   O185      0.48796      .   S
    Zr72   O185      0.48796      .   S
    Zr118  O186      0.64574      .   S
    Zr58   O186      0.64574      .   S
    Zr119  O187      0.64547      .   S
    Zr59   O187      0.64547      .   S
    Zr59   O188      0.63181      .   S
    Zr117  O188      0.63181      .   S
    Zr58   O189      0.63171      .   S
    Zr116  O189      0.63171      .   S
    Zr104  O190      0.48798      .   S
    Zr28   O190      0.48798      .   S
    Zr105  O191      0.48797      .   S
    Zr29   O191      0.48797      .   S
    Zr16   O192      1.06749  1_655   S
    Zr62   O192      1.06749      .   S
    Zr17   O193      1.06578      .   S
    Zr63   O193      1.06578      .   S
    Zr73   O194      1.00126      .   S
    Zr5    O194      1.00126      .   S
    Zr72   O195      1.00298      .   S
    Zr4    O195      1.00298      .   S
    Zr84   O196      0.63172      .   S
    Zr46   O196      0.63172      .   S
    Zr84   O197      1.05783      .   S
    Zr2    O197      1.05783      .   S
    Zr85   O198      0.63184      .   S
    Zr47   O198      0.63184      .   S
    Zr85   O199      1.05731      .   S
    Zr3    O199      1.05731      .   S
    Zr47   O200      0.64546      .   S
    Zr87   O200      0.64546      .   S
    Zr46   O201      0.64576      .   S
    Zr86   O201      0.64576      .   S
    Zr87   O202      0.97089      .   S
    Zr4    O202      0.97089  1_455   S
    Zr86   O203      0.97249      .   S
    Zr5    O203      0.97249      .   S
    Zr3    O204      1.08365      .   S
    Zr61   O204      1.08365      .   S
    Zr3    O205      1.04715      .   S
    Zr83   O205      1.04715      .   S
    Zr2    O206      1.08495      .   S
    Zr60   O206      1.08495      .   S
    Zr2    O207      1.04914      .   S
    Zr82   O207      1.04914      .   S
    Zr5    O208      1.00852      .   S
    Zr74   O208      1.00852      .   S
    Zr5    O209      0.97533      .   S
    Zr81   O209      0.97533      .   S
    Zr4    O210      1.00436  1_455   S
    Zr75   O210      1.00436      .   S
    Zr4    O211      0.97586      .   S
    Zr80   O211      0.97586      .   S
    Zr60   O212      0.64449      .   S
    Zr36   O212      0.64449      .   S
    Zr61   O213      0.64462      .   S
    Zr37   O213      0.64462      .   S
    Zr75   O214      0.48763      .   S
    Zr23   O214      0.48763      .   S
    Zr74   O215      0.48761      .   S
    Zr22   O215      0.48761      .   S
    Zr62   O216      0.63509      .   S
    Zr36   O216      0.63509      .   S
    Zr63   O217      0.63527      .   S
    Zr37   O217      0.63527      .   S
    Zr82   O218      0.63311      .   S
    Zr44   O218      0.63311      .   S
    Zr83   O219      0.63317      .   S
    Zr45   O219      0.63317      .   S
    Zr80   O220      0.64339      .   S
    Zr44   O220      0.64339      .   S
    Zr81   O221      0.64343      .   S
    Zr45   O221      0.64343      .   S
    Zr38   O222      0.64341      .   S
    Zr64   O222      0.64341      .   S
    Zr38   O223      0.63333      .   S
    Zr66   O223      0.63333      .   S
    Zr39   O224      0.64337      .   S
    Zr65   O224      0.64337      .   S
    Zr39   O225      0.63317      .   S
    Zr67   O225      0.63317      .   S
    Zr64   O226      0.97592      .   S
    Zr0    O226      0.97592      .   S
    Zr65   O227      0.97634      .   S
    Zr1    O227      0.97634      .   S
    Zr66   O228      1.04797      .   S
    Zr6    O228      1.04797      .   S
    Zr67   O229      1.04736      .   S
    Zr7    O229      1.04736      .   S
    Zr26   O230      0.48690      .   S
    Zr90   O230      0.48690      .   S
    Zr27   O231      0.48760      .   S
    Zr91   O231      0.48760      .   S
    Zr43   O232      0.63492      .   S
    Zr79   O232      0.63492      .   S
    Zr43   O233      0.64485      .   S
    Zr77   O233      0.64485      .   S
    Zr42   O234      0.63493      .   S
    Zr78   O234      0.63493      .   S
    Zr42   O235      0.64465      .   S
    Zr76   O235      0.64465      .   S
    Zr79   O236      1.06645      .   S
    Zr18   O236      1.06645      .   S
    Zr78   O237      1.06437      .   S
    Zr19   O237      1.06437      .   S
    Zr90   O238      1.00465      .   S
    Zr1    O238      1.00465  1_655   S
    Zr91   O239      1.00596      .   S
    Zr0    O239      1.00596      .   S
    Zr77   O240      1.08452  1_565   S
    Zr7    O240      1.08452      .   S
    Zr76   O241      1.08473  1_565   S
    Zr6    O241      1.08473      .   S
    Zr0    O242      0.97127      .   S
    Zr71   O242      0.97127      .   S
    Zr0    O243      1.00032      .   S
    Zr88   O243      1.00032      .   S
    Zr1    O244      0.97112  1_655   S
    Zr70   O244      0.97112      .   S
    Zr1    O245      1.00105      .   S
    Zr89   O245      1.00105      .   S
    Zr7    O246      1.05808      .   S
    Zr69   O246      1.05808      .   S
    Zr6    O247      1.05860      .   S
    Zr68   O247      1.05860      .   S
    Zr70   O248      0.64551      .   S
    Zr40   O248      0.64551      .   S
    Zr71   O249      0.64567      .   S
    Zr41   O249      0.64567      .   S
    Zr40   O250      0.63177      .   S
    Zr68   O250      0.63177      .   S
    Zr41   O251      0.63161      .   S
    Zr69   O251      0.63161      .   S
    Zr72   O252      1.02860      .   S
    Zr2    O252      1.02860      .   S
    Zr72   O253      1.05806      .   S
    Zr16   O253      1.05806  1_655   S
    Zr73   O254      1.02452      .   S
    Zr3    O254      1.02452      .   S
    Zr73   O255      1.06277      .   S
    Zr17   O255      1.06277      .   S
    Zr74   O256      1.02377      .   S
    Zr2    O256      1.02377      .   S
    Zr74   O257      1.08972      .   S
    Zr17   O257      1.08972      .   S
    Zr75   O258      1.02873      .   S
    Zr3    O258      1.02873      .   S
    Zr75   O259      1.08822      .   S
    Zr16   O259      1.08822      .   S
    Zr88   O260      1.02441      .   S
    Zr6    O260      1.02441      .   S
    Zr88   O261      1.05497      .   S
    Zr19   O261      1.05497  1_565   S
    Zr89   O262      1.02911      .   S
    Zr7    O262      1.02911      .   S
    Zr89   O263      1.05866      .   S
    Zr18   O263      1.05866  1_565   S
    Zr90   O264      1.02705      .   S
    Zr6    O264      1.02705      .   S
    Zr90   O265      1.08564      .   S
    Zr18   O265      1.08564  1_665   S
    Zr91   O266      1.02679      .   S
    Zr7    O266      1.02679      .   S
    Zr91   O267      1.08798      .   S
    Zr19   O267      1.08798  1_565   S
    Zr104  O268      1.02917      .   S
    Zr10   O268      1.02917      .   S
    Zr104  O269      1.05754      .   S
    Zr17   O269      1.05754      .   S
    Zr105  O270      1.02483      .   S
    Zr11   O270      1.02483      .   S
    Zr105  O271      1.06245      .   S
    Zr16   O271      1.06245      .   S
    Zr106  O272      1.02346      .   S
    Zr10   O272      1.02346      .   S
    Zr106  O273      1.08981      .   S
    Zr16   O273      1.08981  1_655   S
    Zr107  O274      1.02830      .   S
    Zr11   O274      1.02830      .   S
    Zr107  O275      1.08798      .   S
    Zr17   O275      1.08798      .   S
    Zr120  O276      1.02888      .   S
    Zr14   O276      1.02888      .   S
    Zr120  O277      1.05827      .   S
    Zr18   O277      1.05827  1_656   S
    Zr121  O278      1.02465      .   S
    Zr15   O278      1.02465      .   S
    Zr121  O279      1.05983      .   S
    Zr19   O279      1.05983  1_556   S
    Zr122  O280      1.02482      .   S
    Zr14   O280      1.02482      .   S
    Zr122  O281      1.08312      .   S
    Zr19   O281      1.08312  1_556   S
    Zr123  O282      1.02745      .   S
    Zr15   O282      1.02745      .   S
    Zr123  O283      1.08507      .   S
    Zr18   O283      1.08507  1_556   S
    N284   O285      1.07763      .   S
    Zr38   O285      1.82879      .   S
    N284   O286      1.07790      .   S
    Zr36   O286      1.82644      .   S
    N287   O288      1.07630  1_556   S
    Zr52   O288      1.82537      .   S
    N287   O289      1.07639      .   S
    Zr40   O289      1.82550      .   S
    N290   O291      1.07702      .   S
    Zr44   O291      1.82803      .   S
    N290   O292      1.07728      .   S
    Zr42   O292      1.82519      .   S
    N293   O294      1.07747      .   S
    Zr55   O294      1.82571      .   S
    N293   O295      1.07715      .   S
    Zr57   O295      1.82808      .   S
    N296   O297      1.07479      .   S
    Zr47   O297      1.82282      .   S
    N296   O298      1.07479  1_565   S
    Zr59   O298      1.82283      .   S
    N299   O300      1.07739      .   S
    Zr45   O300      1.82845      .   S
    N299   O301      1.07773      .   S
    Zr43   O301      1.82619      .   S
    N302   O303      1.07800      .   S
    Zr48   O303      1.82647      .   S
    N302   O304      1.07765      .   S
    Zr50   O304      1.82895      .   S
    N305   O306      1.07721      .   S
    Zr54   O306      1.82525      .   S
    N305   O307      1.07703      .   S
    Zr56   O307      1.82797      .   S
    N308   O309      1.07766      .   S
    Zr39   O309      1.82892      .   S
    N308   O310      1.07798      .   S
    Zr37   O310      1.82669      .   S
    N311   O312      1.07636  1_554   S
    Zr41   O312      1.82548      .   S
    N311   O313      1.07648      .   S
    Zr53   O313      1.82566      .   S
    N314   O315      1.07738      .   S
    Zr49   O315      1.82562      .   S
    N314   O316      1.07699      .   S
    Zr51   O316      1.82777      .   S
    N317   O318      1.07621      .   S
    Zr46   O318      1.82510      .   S
    N317   O319      1.07626  1_565   S
    Zr58   O319      1.82520      .   S
