# CIF file generated by openbabel 2.4.90, see http://openbabel.sf.net
data_I
_chemical_name_common ''
_cell_length_a 10.3935
_cell_length_b 17.884
_cell_length_c 21.009
_cell_angle_alpha 90.126
_cell_angle_beta 90.167
_cell_angle_gamma 90.149
_space_group_name_H-M_alt 'P 1'
_space_group_name_Hall 'P 1'
loop_
    _symmetry_equiv_pos_as_xyz
    x,y,z
loop_
    _atom_site_label
    _atom_site_type_symbol
    _atom_site_fract_x
    _atom_site_fract_y
    _atom_site_fract_z
    _atom_site_occupancy
    H0      H    0.44871   0.76011   0.64530   1.000
    H1      H    0.45517   0.75941   0.14804   1.000
    H2      H    0.74727   0.87463   0.75048   1.000
    H3      H    0.75399   0.87511   0.25207   1.000
    H4      H    0.52150   0.98447   0.60577   1.000
    H5      H    0.52904   0.98300   0.10595   1.000
    H6      H    0.03824   0.26062   0.85813   1.000
    H7      H    0.04344   0.26002   0.35683   1.000
    H8      H    0.74375   0.37517   0.74662   1.000
    H9      H    0.74749   0.37419   0.24700   1.000
    H10     H    0.96796   0.48380   0.89342   1.000
    H11     H    0.96835   0.48484   0.39391   1.000
    H12     H    0.53971   0.73650   0.39570   1.000
    H13     H    0.24493   0.62211   0.50231   1.000
    H14     H    0.24979   0.61987   0.00283   1.000
    H15     H    0.47021   0.51089   0.85586   1.000
    H16     H    0.47018   0.51100   0.35831   1.000
    H17     H    0.95917   0.23432   0.10225   1.000
    H18     H    0.95214   0.23599   0.60319   1.000
    H19     H    0.25105   0.11929   0.99866   1.000
    H20     H    0.24629   0.12309   0.50150   1.000
    H21     H    0.02444   0.01218   0.64687   1.000
    H22     H    0.02849   0.01066   0.14499   1.000
    C23     C    0.50496   0.81008   0.65613   1.000
    C24     C    0.51161   0.80947   0.15831   1.000
    C25     C    0.59968   0.80913   0.70337   1.000
    C26     C    0.60647   0.80902   0.20545   1.000
    C27     C    0.67150   0.87402   0.71453   1.000
    C28     C    0.67842   0.87399   0.21602   1.000
    C29     C    0.54621   0.93532   0.63380   1.000
    C30     C    0.55350   0.93428   0.13455   1.000
    C31     C    0.72127   0.00824   0.68752   1.000
    C32     C    0.72881   0.00778   0.18775   1.000
    C33     C    0.64485   0.93805   0.67894   1.000
    C34     C    0.65224   0.93751   0.17964   1.000
    C35     C    0.62243   0.73963   0.74112   1.000
    C36     C    0.62828   0.73991   0.24381   1.000
    C37     C    0.98256   0.30956   0.84197   1.000
    C38     C    0.98818   0.31083   0.34238   1.000
    C39     C    0.88877   0.30902   0.79434   1.000
    C40     C    0.89464   0.30941   0.29456   1.000
    C41     C    0.81850   0.37415   0.78307   1.000
    C42     C    0.82241   0.37390   0.28338   1.000
    C43     C    0.94295   0.43486   0.86491   1.000
    C44     C    0.94495   0.43566   0.36537   1.000
    C45     C    0.77036   0.50838   0.81016   1.000
    C46     C    0.77071   0.50786   0.31105   1.000
    C47     C    0.84539   0.43800   0.81922   1.000
    C48     C    0.84751   0.43798   0.31959   1.000
    C49     C    0.86637   0.23971   0.75607   1.000
    C50     C    0.87400   0.23960   0.25649   1.000
    C51     C    0.48678   0.68542   0.90667   1.000
    C52     C    0.48440   0.68642   0.40699   1.000
    C53     C    0.38993   0.68777   0.45402   1.000
    C54     C    0.39402   0.68603   0.00000   1.000
    C55     C    0.32391   0.62079   0.96629   1.000
    C56     C    0.31998   0.62255   0.46621   1.000
    C57     C    0.44626   0.55994   0.88430   1.000
    C58     C    0.44518   0.56048   0.38596   1.000
    C59     C    0.27570   0.48612   0.93986   1.000
    C60     C    0.27346   0.48717   0.44097   1.000
    C61     C    0.35010   0.55677   0.93041   1.000
    C62     C    0.34755   0.55795   0.43136   1.000
    C63     C    0.36648   0.75817   0.49054   1.000
    C64     C    0.37202   0.75568   0.00000   1.000
    C65     C    0.00796   0.18698   0.59760   1.000
    C66     C    0.01295   0.18483   0.09410   1.000
    C67     C    0.10632   0.18543   0.04652   1.000
    C68     C    0.10129   0.18831   0.55001   1.000
    C69     C    0.17185   0.12345   0.53791   1.000
    C70     C    0.17650   0.12029   0.03501   1.000
    C71     C    0.04872   0.06153   0.61899   1.000
    C72     C    0.05292   0.05960   0.11662   1.000
    C73     C    0.21919   0.98846   0.56310   1.000
    C74     C    0.22465   0.98592   0.06231   1.000
    C75     C    0.14540   0.05905   0.57312   1.000
    C76     C    0.14993   0.05645   0.07097   1.000
    C77     C    0.12835   0.25519   0.00904   1.000
    C78     C    0.12291   0.25830   0.51284   1.000
    N79     N    0.47830   0.87225   0.62230   1.000
    N80     N    0.48503   0.87120   0.12391   1.000
    N81     N    0.01156   0.37318   0.88050   1.000
    N82     N    0.01329   0.37206   0.38012   1.000
    N83     N    0.51263   0.62335   0.87240   1.000
    N84     N    0.51184   0.62374   0.37387   1.000
    N85     N    0.98174   0.12378   0.62567   1.000
    N86     N    0.98878   0.12248   0.12599   1.000
    O87     O    0.67820   0.06923   0.66383   1.000
    O88     O    0.68828   0.06798   0.16157   1.000
    O89     O    0.82816   0.00605   0.71705   1.000
    O90     O    0.83310   0.00645   0.21952   1.000
    O91     O    0.57234   0.67807   0.72217   1.000
    O92     O    0.57777   0.67833   0.22487   1.000
    O93     O    0.68988   0.74303   0.79179   1.000
    O94     O    0.69455   0.74346   0.29474   1.000
    O95     O    0.81139   0.56891   0.83600   1.000
    O96     O    0.81228   0.56873   0.33627   1.000
    O97     O    0.66657   0.50675   0.77797   1.000
    O98     O    0.66545   0.50572   0.28027   1.000
    O99     O    0.91645   0.17828   0.77503   1.000
    O100    O    0.92679   0.17890   0.27509   1.000
    O101    O    0.80011   0.24302   0.70514   1.000
    O102    O    0.80580   0.24176   0.20600   1.000
    O103    O    0.31569   0.42562   0.91426   1.000
    O104    O    0.31227   0.42727   0.41393   1.000
    O105    O    0.17235   0.48775   0.97241   1.000
    O106    O    0.17197   0.48787   0.47489   1.000
    O107    O    0.42054   0.81870   0.47252   1.000
    O108    O    0.42642   0.81635   0.00000   1.000
    O109    O    0.29451   0.75631   0.53962   1.000
    O110    O    0.30067   0.75320   0.04167   1.000
    O111    O    0.17804   0.92801   0.58852   1.000
    O112    O    0.18350   0.92578   0.08844   1.000
    O113    O    0.32215   0.98978   0.53041   1.000
    O114    O    0.32832   0.98703   0.03035   1.000
    O115    O    0.07779   0.31622   0.02876   1.000
    O116    O    0.06778   0.31858   0.53045   1.000
    O117    O    0.19464   0.25295   0.95829   1.000
    O118    O    0.19465   0.25636   0.46365   1.000
loop_
    _geom_bond_atom_site_label_1
    _geom_bond_atom_site_label_2
    _geom_bond_distance
    _geom_bond_site_symmetry_2
    _ccdc_geom_bond_type
    C54    C64       1.26708      .   S
    C54    C55       1.54366  1_554   S
    C64    O108      1.22218      .   S
    C64    O110      1.14982      .   S
    H14    C55       1.08934  1_554   S
    C77    O115      1.28111      .   S
    C77    C67       1.49431      .   S
    C77    O117      1.27178  1_554   S
    O114   C74       1.27144      .   S
    C70    C67       1.39718      .   S
    C70    C76       1.39778      .   S
    C70    H19       1.08952  1_554   S
    C67    C66       1.39527      .   S
    C74    C76       1.49405  1_565   S
    C74    O112      1.28167      .   S
    C76    C72       1.39484      .   S
    C66    H17       1.06187  1_455   S
    C66    N86       1.32582  1_455   S
    H5     C30       1.08984      .   S
    C72    N86       1.32338  1_455   S
    C72    H22       1.08982      .   S
    N80    C30       1.35017      .   S
    N80    C24       1.34948      .   S
    C30    C34       1.39549      .   S
    H1     C24       1.08995      .   S
    C24    C26       1.39544      .   S
    O88    C32       1.28172      .   S
    C34    C32       1.49488  1_565   S
    C34    C28       1.39741      .   S
    C32    O90       1.27157      .   S
    C26    C28       1.39721      .   S
    C26    C36       1.49441      .   S
    O102   C50       1.27477      .   S
    C28    H3        1.08962      .   S
    O92    C36       1.28083      .   S
    C36    O94       1.27225      .   S
    H9     C42       1.08968      .   S
    C50    O100      1.27893      .   S
    C50    C40       1.49586      .   S
    O98    C46       1.26978      .   S
    C42    C40       1.39764      .   S
    C42    C48       1.39780      .   S
    C40    C38       1.39621      .   S
    C46    C48       1.49542      .   S
    C46    O96       1.28297      .   S
    C48    C44       1.39541      .   S
    C38    H7        1.11832  1_655   S
    C38    N82       1.37456  1_655   S
    H16    C58       1.08986      .   S
    C44    N82       1.37799  1_655   S
    C44    H11       1.08991      .   S
    N84    C58       1.35000      .   S
    N84    C52       1.34966      .   S
    C58    C62       1.39542      .   S
    H12    C52       1.08996      .   S
    C52    C53       1.39511      .   S
    O104   C60       1.27827      .   S
    C62    C60       1.49439      .   S
    C62    C56       1.39714      .   S
    C60    O106      1.27466      .   S
    C53    C56       1.39732      .   S
    C53    C63       1.49382      .   S
    O118   C78       1.27653      .   S
    C56    H13       1.08957      .   S
    O107   C63       1.27710      .   S
    C63    O109      1.27617      .   S
    H20    C69       1.08957      .   S
    C78    O116      1.27673      .   S
    C78    C68       1.49371      .   S
    O113   C73       1.27343      .   S
    C69    C68       1.39723      .   S
    C69    C75       1.39716      .   S
    C68    C65       1.39521      .   S
    C73    C75       1.49370  1_565   S
    C73    O111      1.27987      .   S
    C75    C71       1.39502      .   S
    C65    H18       1.05896  1_455   S
    C65    N85       1.30445  1_455   S
    H4     C29       1.08987      .   S
    C71    N85       1.32203  1_455   S
    C71    H21       1.08984      .   S
    N79    C29       1.34996      .   S
    N79    C23       1.34987      .   S
    C29    C33       1.39509      .   S
    H0     C23       1.08994      .   S
    C23    C25       1.39600      .   S
    O87    C31       1.28113      .   S
    C33    C31       1.49404  1_565   S
    C33    C27       1.39698      .   S
    C31    O89       1.27163      .   S
    C25    C27       1.39727      .   S
    C25    C35       1.49482      .   S
    O101   C49       1.27239      .   S
    C27    H2        1.08958      .   S
    O91    C35       1.27886      .   S
    C35    O93       1.27431      .   S
    H8     C41       1.08957      .   S
    C49    O99       1.28070      .   S
    C49    C39       1.49338      .   S
    O97    C45       1.27182      .   S
    C41    C39       1.39663      .   S
    C41    C47       1.39712      .   S
    C39    C37       1.39507      .   S
    C45    C47       1.49465      .   S
    C45    O95       1.28140      .   S
    C47    C43       1.39557      .   S
    C37    H6        1.10413  1_655   S
    C37    N81       1.42590  1_655   S
    H15    C57       1.08993      .   S
    C43    N81       1.35537  1_655   S
    C43    H10       1.08988      .   S
    N83    C57       1.35007      .   S
    N83    C51       1.34976      .   S
    C57    C61       1.39503      .   S
    O103   C59       1.27808      .   S
    C61    C59       1.49352      .   S
    C61    C55       1.39717      .   S
    C59    O105      1.27551      .   S
    O110   C54       1.77690      .   S
