# CIF file generated by openbabel 2.4.90, see http://openbabel.sf.net
data_I
_chemical_name_common ''
_cell_length_a 10.3935
_cell_length_b 17.884
_cell_length_c 21.009
_cell_angle_alpha 90.126
_cell_angle_beta 90.167
_cell_angle_gamma 90.149
_space_group_name_H-M_alt 'P 1'
_space_group_name_Hall 'P 1'
loop_
    _symmetry_equiv_pos_as_xyz
    x,y,z
loop_
    _atom_site_label
    _atom_site_type_symbol
    _atom_site_fract_x
    _atom_site_fract_y
    _atom_site_fract_z
    _atom_site_occupancy
    Zn0     Zn   0.85018   0.12473   0.19467   1.000
    Zn1     Zn   0.64961   0.62505   0.80261   1.000
    Zn2     Zn   0.65022   0.62489   0.30518   1.000
    Zn3     Zn   0.15028   0.37163   0.94972   1.000
    Zn4     Zn   0.14999   0.37168   0.45022   1.000
    Zn5     Zn   0.33922   0.87198   0.55289   1.000
    Zn6     Zn   0.34491   0.86907   0.05532   1.000
    Zn7     Zn   0.84371   0.12467   0.69455   1.000
