# CIF file generated by openbabel 2.4.90, see http://openbabel.sf.net
data_I
_chemical_name_common ''
_cell_length_a 10.3935
_cell_length_b 17.884
_cell_length_c 21.009
_cell_angle_alpha 90.126
_cell_angle_beta 90.167
_cell_angle_gamma 90.149
_space_group_name_H-M_alt 'P 1'
_space_group_name_Hall 'P 1'
loop_
    _symmetry_equiv_pos_as_xyz
    x,y,z
loop_
    _atom_site_label
    _atom_site_type_symbol
    _atom_site_fract_x
    _atom_site_fract_y
    _atom_site_fract_z
    _atom_site_occupancy
    N0      N    0.62508   0.87313   0.19041   1.000
    N1      N    0.37286   0.62293   0.44048   1.000
    N2      N    0.36404   0.61341   0.94907   1.000
    N3      N    0.11897   0.12359   0.56292   1.000
    N4      N    0.87140   0.37356   0.80950   1.000
    N5      N    0.61835   0.87349   0.68894   1.000
    N6      N    0.12422   0.12110   0.06082   1.000
    N7      N    0.87502   0.37343   0.30989   1.000
    Zr8     Zr   0.64961   0.62505   0.80261   1.000
    O9      O    0.56109   0.62193   0.84795   1.000
    Zr10    Zr   0.34491   0.86907   0.05532   1.000
    O11     O    0.43247   0.87035   0.09767   1.000
    Zr12    Zr   0.33922   0.87198   0.55289   1.000
    O13     O    0.42639   0.87239   0.59558   1.000
    Zr14    Zr   0.84371   0.12467   0.69455   1.000
    O15     O    0.92978   0.12429   0.65303   1.000
    Zr16    Zr   0.85018   0.12473   0.19467   1.000
    O17     O    0.93602   0.12354   0.15263   1.000
    Zr18    Zr   0.65022   0.62489   0.30518   1.000
    O19     O    0.56358   0.62425   0.34759   1.000
    Zr20    Zr   0.15028   0.37163   0.94972   1.000
    O21     O    0.06322   0.37230   0.90601   1.000
    Zr22    Zr   0.14999   0.37168   0.45022   1.000
    O23     O    0.06416   0.37217   0.40637   1.000
    O24     O    0.34992   0.79916   0.51894   1.000
    O25     O    0.27302   0.94575   0.55622   1.000
    O26     O    0.78272   0.05089   0.19309   1.000
    O27     O    0.85840   0.19761   0.22921   1.000
    O28     O    0.27861   0.94299   0.05720   1.000
    O29     O    0.35202   0.79462   0.02445   1.000
    O30     O    0.14201   0.29811   0.98297   1.000
    O31     O    0.21544   0.44271   0.94876   1.000
    O32     O    0.85246   0.19764   0.72898   1.000
    O33     O    0.77606   0.05100   0.69263   1.000
    O34     O    0.21722   0.44523   0.44706   1.000
    O35     O    0.71623   0.55128   0.80488   1.000
    O36     O    0.63948   0.69785   0.76849   1.000
    O37     O    0.64218   0.69770   0.27081   1.000
    O38     O    0.71750   0.55106   0.30674   1.000
    O39     O    0.13989   0.29913   0.48425   1.000
loop_
    _geom_bond_atom_site_label_1
    _geom_bond_atom_site_label_2
    _geom_bond_distance
    _geom_bond_site_symmetry_2
    _ccdc_geom_bond_type
    Zr8    O9        1.32733      .   S
    N2     O9        2.95908      .   S
    Zr10   O11       1.27096      .   S
    N0     O11       2.78988      .   S
    Zr12   O13       1.27295      .   S
    N5     O13       2.79376      .   S
    Zr14   O15       1.25123      .   S
    N3     O15       2.73354  1_455   S
    Zr16   O17       1.25755      .   S
    N6     O17       2.75147  1_455   S
    Zr18   O19       1.26870      .   S
    N1     O19       2.78583      .   S
    Zr20   O21       1.28736      .   S
    N4     O21       2.83957  1_655   S
    Zr22   O23       1.28050      .   S
    N7     O23       2.81981  1_655   S
    Zr12   O24       1.48808      .   S
    N1     O24       3.56224      .   S
    Zr12   O25       1.49111      .   S
    N3     O25       3.56723  1_545   S
    Zr16   O26       1.49381      .   S
    N0     O26       3.57296  1_565   S
    Zr16   O27       1.49238      .   S
    N7     O27       3.57239      .   S
    Zr10   O28       1.49294      .   S
    N6     O28       3.57108  1_545   S
    Zr10   O29       1.48185      .   S
    N2     O29       3.60634  1_556   S
    Zr20   O30       1.49252      .   S
    N6     O30       3.57113  1_554   S
    Zr20   O31       1.43898      .   S
    N2     O31       3.41778      .   S
    Zr14   O32       1.49308      .   S
    N4     O32       3.57355      .   S
    Zr14   O33       1.49232      .   S
    N5     O33       3.56959  1_565   S
    N1     O34       3.56540      .   S
    Zr22   O34       1.48953      .   S
    N4     O35       3.56914      .   S
    Zr8    O35       1.49241      .   S
    N5     O36       3.56829      .   S
    Zr8    O36       1.49140      .   S
    Zr18   O37       1.49269      .   S
    N0     O37       3.57106      .   S
    Zr18   O38       1.49596      .   S
    N7     O38       3.57828      .   S
    Zr22   O39       1.48642      .   S
    N3     O39       3.55760      .   S
