# CIF file generated by openbabel 2.4.90, see http://openbabel.sf.net
data_I
_chemical_name_common ''
_cell_length_a 10.3935
_cell_length_b 17.884
_cell_length_c 21.009
_cell_angle_alpha 90.126
_cell_angle_beta 90.167
_cell_angle_gamma 90.149
_space_group_name_H-M_alt 'P 1'
_space_group_name_Hall 'P 1'
loop_
    _symmetry_equiv_pos_as_xyz
    x,y,z
loop_
    _atom_site_label
    _atom_site_type_symbol
    _atom_site_fract_x
    _atom_site_fract_y
    _atom_site_fract_z
    _atom_site_occupancy
    N0      N    0.62508   0.87313   0.19041   1.000
    N1      N    0.37286   0.62293   0.44048   1.000
    N2      N    0.36404   0.61341   0.94907   1.000
    N3      N    0.11897   0.12359   0.56292   1.000
    N4      N    0.87140   0.37356   0.80950   1.000
    N5      N    0.61835   0.87349   0.68894   1.000
    N6      N    0.12422   0.12110   0.06082   1.000
    N7      N    0.87502   0.37343   0.30989   1.000
    Zr8     Zr   0.64961   0.62505   0.80261   1.000
    O9      O    0.72528   0.55516   0.80851   1.000
    O10     O    0.70717   0.54739   0.80125   1.000
    O11     O    0.64683   0.70191   0.77284   1.000
    O12     O    0.63213   0.69379   0.76414   1.000
    O13     O    0.56109   0.62193   0.84795   1.000
    Zr14    Zr   0.34491   0.86907   0.05532   1.000
    O15     O    0.26956   0.93916   0.06083   1.000
    O16     O    0.28766   0.94682   0.05357   1.000
    O17     O    0.43247   0.87035   0.09767   1.000
    O18     O    0.34416   0.79067   0.02705   1.000
    O19     O    0.35988   0.79856   0.02184   1.000
    Zr20    Zr   0.33922   0.87198   0.55289   1.000
    O21     O    0.28202   0.94961   0.55259   1.000
    O22     O    0.26401   0.94189   0.55985   1.000
    O23     O    0.42639   0.87239   0.59558   1.000
    O24     O    0.34204   0.79526   0.52313   1.000
    O25     O    0.35780   0.80306   0.51474   1.000
    Zr26    Zr   0.84371   0.12467   0.69455   1.000
    O27     O    0.92978   0.12429   0.65303   1.000
    O28     O    0.84518   0.20169   0.72461   1.000
    O29     O    0.85973   0.19360   0.73335   1.000
    O30     O    0.78543   0.04705   0.69596   1.000
    O31     O    0.76668   0.05495   0.68931   1.000
    Zr32    Zr   0.85018   0.12473   0.19467   1.000
    O33     O    0.86596   0.19368   0.23353   1.000
    O34     O    0.93602   0.12354   0.15263   1.000
    O35     O    0.79177   0.04705   0.19672   1.000
    O36     O    0.77367   0.05474   0.18947   1.000
    O37     O    0.85084   0.20154   0.22489   1.000
    Zr38    Zr   0.65022   0.62489   0.30518   1.000
    O39     O    0.72668   0.55500   0.31024   1.000
    O40     O    0.70832   0.54713   0.30324   1.000
    O41     O    0.63488   0.69363   0.26645   1.000
    O42     O    0.56358   0.62425   0.34759   1.000
    O43     O    0.64948   0.70177   0.27518   1.000
    Zr44    Zr   0.54187   0.73562   0.00000   1.000
    Zr45    Zr   0.15028   0.37163   0.94972   1.000
    O46     O    0.14931   0.29416   0.97856   1.000
    O47     O    0.13471   0.30207   0.98737   1.000
    O48     O    0.06322   0.37230   0.90601   1.000
    O49     O    0.22440   0.43882   0.94512   1.000
    O50     O    0.20648   0.44659   0.95239   1.000
    Zr51    Zr   0.14999   0.37168   0.45022   1.000
    O52     O    0.14782   0.29525   0.48007   1.000
    O53     O    0.13196   0.30302   0.48842   1.000
    O54     O    0.20846   0.44902   0.45087   1.000
    O55     O    0.22599   0.44145   0.44325   1.000
    O56     O    0.06416   0.37217   0.40637   1.000
loop_
    _geom_bond_atom_site_label_1
    _geom_bond_atom_site_label_2
    _geom_bond_distance
    _geom_bond_site_symmetry_2
    _ccdc_geom_bond_type
    Zr8    O9        1.48370      .   S
    N4     O9        3.58891      .   S
    Zr8    O10       1.51392      .   S
    N4     O10       3.55472      .   S
    Zr8    O11       1.51168      .   S
    N5     O11       3.55471      .   S
    Zr8    O12       1.48395      .   S
    N5     O12       3.58722      .   S
    Zr8    O13       1.32733      .   S
    N2     O13       2.95908      .   S
    Zr14   O15       1.48432      .   S
    N6     O15       3.59082  1_545   S
    Zr14   O16       1.51437      .   S
    N6     O16       3.55669  1_545   S
    Zr14   O17       1.27096      .   S
    N0     O17       2.78988      .   S
    Zr14   O18       1.52141      .   S
    N2     O18       3.57189  1_556   S
    Zr14   O19       1.45134      .   S
    N2     O19       3.64449  1_556   S
    Zr20   O21       1.51168      .   S
    N3     O21       3.55349  1_545   S
    Zr20   O22       1.48339      .   S
    N3     O22       3.58633  1_545   S
    Zr20   O23       1.27295      .   S
    N5     O23       2.79376      .   S
    Zr20   O24       1.50693      .   S
    N1     O24       3.54969      .   S
    Zr20   O25       1.48211      .   S
    N1     O25       3.58016      .   S
    Zr26   O27       1.25123      .   S
    N3     O27       2.73354  1_455   S
    Zr26   O28       1.51399      .   S
    N4     O28       3.55975      .   S
    Zr26   O29       1.48498      .   S
    N4     O29       3.59270      .   S
    Zr26   O30       1.51360      .   S
    N5     O30       3.55534  1_565   S
    Zr26   O31       1.48385      .   S
    N5     O31       3.58917  1_565   S
    Zr32   O33       1.48571      .   S
    N7     O33       3.59045      .   S
    Zr32   O34       1.25755      .   S
    N6     O34       2.75147  1_455   S
    Zr32   O35       1.51547      .   S
    N0     O35       3.55840  1_565   S
    Zr32   O36       1.48493      .   S
    N0     O36       3.59286  1_565   S
    Zr32   O37       1.51188      .   S
    N7     O37       3.55969      .   S
    Zr38   O39       1.48662      .   S
    N7     O39       3.59829      .   S
    Zr38   O40       1.51806      .   S
    N7     O40       3.56361      .   S
    Zr38   O41       1.48442      .   S
    N0     O41       3.59036      .   S
    Zr38   O42       1.26870      .   S
    N1     O42       2.78583      .   S
    Zr38   O43       1.51378      .   S
    N0     O43       3.55712      .   S
    Zr45   O46       1.51341      .   S
    N6     O46       3.55748  1_554   S
    Zr45   O47       1.48444      .   S
    N6     O47       3.59011  1_554   S
    Zr45   O48       1.28736      .   S
    N4     O48       2.83957  1_655   S
    Zr45   O49       1.42934      .   S
    N2     O49       3.44053      .   S
    Zr45   O50       1.46186      .   S
    N2     O50       3.40059      .   S
    Zr51   O52       1.50546      .   S
    N3     O52       3.54475      .   S
    Zr51   O53       1.48027      .   S
    N3     O53       3.57582      .   S
    Zr51   O54       1.50924      .   S
    N1     O54       3.55230      .   S
    Zr51   O55       1.48267      .   S
    N1     O55       3.58385      .   S
    Zr51   O56       1.28050      .   S
    N7     O56       2.81981  1_655   S
