# CIF file generated by openbabel 2.4.90, see http://openbabel.sf.net
data_I
_chemical_name_common ''
_cell_length_a 10.3935
_cell_length_b 17.884
_cell_length_c 21.009
_cell_angle_alpha 90.126
_cell_angle_beta 90.167
_cell_angle_gamma 90.149
_space_group_name_H-M_alt 'P 1'
_space_group_name_Hall 'P 1'
loop_
    _symmetry_equiv_pos_as_xyz
    x,y,z
loop_
    _atom_site_label
    _atom_site_type_symbol
    _atom_site_fract_x
    _atom_site_fract_y
    _atom_site_fract_z
    _atom_site_occupancy
    Zr0     Zr   0.84371   0.12467   0.69455   1.000
    Zr1     Zr   0.85018   0.12473   0.19467   1.000
    Zr2     Zr   0.64961   0.62505   0.80261   1.000
    Zr3     Zr   0.65022   0.62489   0.30518   1.000
    Zr4     Zr   0.15028   0.37163   0.94972   1.000
    Zr5     Zr   0.14999   0.37168   0.45022   1.000
    Zr6     Zr   0.33922   0.87198   0.55289   1.000
    Zr7     Zr   0.34491   0.86907   0.05532   1.000
    Zr8     Zr   0.54187   0.73562   0.00000   1.000
    N9      N    0.62508   0.87313   0.19041   1.000
    O10     O    0.73336   0.96936   0.19876   1.000
    O11     O    0.69716   0.98474   0.18427   1.000
    O12     O    0.61954   0.76237   0.22772   1.000
    O13     O    0.64873   0.77865   0.24519   1.000
    O14     O    0.52002   0.87163   0.14001   1.000
    N15     N    0.37286   0.62293   0.44048   1.000
    O16     O    0.47695   0.62362   0.39000   1.000
    O17     O    0.30200   0.51121   0.43628   1.000
    O18     O    0.26692   0.52635   0.45152   1.000
    O19     O    0.37637   0.73414   0.47659   1.000
    O20     O    0.34486   0.71854   0.49337   1.000
    N21     N    0.36404   0.61341   0.94907   1.000
    O22     O    0.47258   0.61881   0.89329   1.000
    O23     O    0.29851   0.50602   0.94053   1.000
    O24     O    0.26268   0.52155   0.95507   1.000
    O25     O    0.37485   0.72806   0.98836   1.000
    O26     O    0.34341   0.71227   0.99878   1.000
    N27     N    0.11897   0.12359   0.56292   1.000
    O28     O    0.18880   0.01179   0.56681   1.000
    O29     O    0.22483   0.02724   0.55229   1.000
    O30     O    0.01585   0.12391   0.61152   1.000
    O31     O    0.11393   0.23436   0.52663   1.000
    O32     O    0.14564   0.21881   0.50993   1.000
    N33     N    0.87140   0.37356   0.80950   1.000
    O34     O    0.76474   0.46973   0.79990   1.000
    O35     O    0.87574   0.26252   0.77215   1.000
    O36     O    0.80095   0.48527   0.81440   1.000
    O37     O    0.84665   0.27870   0.75467   1.000
    O38     O    0.97616   0.37298   0.86231   1.000
    N39     N    0.61835   0.87349   0.68894   1.000
    O40     O    0.61466   0.76252   0.72567   1.000
    O41     O    0.68965   0.98522   0.68407   1.000
    O42     O    0.72715   0.96942   0.69737   1.000
    O43     O    0.64405   0.77876   0.74307   1.000
    O44     O    0.51356   0.87280   0.63827   1.000
    N45     N    0.12422   0.12110   0.06082   1.000
    O46     O    0.19421   0.00926   0.06635   1.000
    O47     O    0.23042   0.02457   0.05183   1.000
    O48     O    0.11913   0.23251   0.02503   1.000
    O49     O    0.02185   0.12235   0.11058   1.000
    O50     O    0.14834   0.21669   0.00741   1.000
    N51     N    0.87502   0.37343   0.30989   1.000
    O52     O    0.80313   0.48512   0.31531   1.000
    O53     O    0.76643   0.46937   0.30130   1.000
    O54     O    0.88175   0.26262   0.27238   1.000
    O55     O    0.85150   0.27834   0.25511   1.000
    O56     O    0.97833   0.37265   0.36253   1.000
loop_
    _geom_bond_atom_site_label_1
    _geom_bond_atom_site_label_2
    _geom_bond_distance
    _geom_bond_site_symmetry_2
    _ccdc_geom_bond_type
    N9     O10       2.06073      .   S
    Zr1    O10       3.03095  1_545   S
    N9     O11       2.13453      .   S
    Zr1    O11       2.96987  1_545   S
    N9     O12       2.13253      .   S
    Zr3    O12       2.96883      .   S
    N9     O13       2.06121      .   S
    Zr3    O13       3.02755      .   S
    N9     O14       1.51893      .   S
    Zr7    O14       2.54193      .   S
    N15    O16       1.51714      .   S
    Zr3    O16       2.53740      .   S
    N15    O17       2.12934      .   S
    Zr5    O17       2.96534      .   S
    N15    O18       2.05980      .   S
    Zr5    O18       3.01848      .   S
    N15    O19       2.12719      .   S
    Zr6    O19       2.96422      .   S
    N15    O20       2.05885      .   S
    Zr6    O20       3.01387      .   S
    N21    O22       1.63186      .   S
    Zr2    O22       2.65466      .   S
    N21    O23       2.04349      .   S
    Zr4    O23       2.85868      .   S
    N21    O24       1.95382      .   S
    Zr4    O24       2.92372      .   S
    N21    O25       2.21109      .   S
    Zr7    O25       2.90268  1_554   S
    N21    O26       2.06344      .   S
    Zr7    O26       3.04283  1_554   S
    N27    O28       2.13048      .   S
    Zr6    O28       2.96677  1_565   S
    N27    O29       2.05900      .   S
    Zr6    O29       3.02335  1_565   S
    N27    O30       1.48236      .   S
    Zr0    O30       2.50246  1_655   S
    N27    O31       2.12500      .   S
    Zr5    O31       2.96053      .   S
    N27    O32       2.05516      .   S
    Zr5    O32       3.01092      .   S
    N33    O34       2.05859      .   S
    Zr2    O34       3.02785      .   S
    N33    O35       2.13438      .   S
    Zr0    O35       2.96995      .   S
    N33    O36       2.13193      .   S
    Zr2    O36       2.96741      .   S
    N33    O37       2.06358      .   S
    Zr0    O37       3.02799      .   S
    N33    O38       1.55221      .   S
    Zr4    O38       2.57473  1_455   S
    N39    O40       2.13108      .   S
    Zr2    O40       2.96789      .   S
    N39    O41       2.13219      .   S
    Zr0    O41       2.96770  1_545   S
    N39    O42       2.05940      .   S
    Zr0    O42       3.02720  1_545   S
    N39    O43       2.05995      .   S
    Zr2    O43       3.02337      .   S
    N39    O44       1.52083      .   S
    Zr6    O44       2.54590      .   S
    N45    O46       2.13335      .   S
    Zr7    O46       2.96864  1_565   S
    N45    O47       2.05999      .   S
    Zr7    O47       3.02873  1_565   S
    N45    O48       2.13197      .   S
    Zr4    O48       2.96887  1_556   S
    N45    O49       1.49393      .   S
    Zr1    O49       2.51509  1_655   S
    N45    O50       2.06218      .   S
    Zr4    O50       3.02683  1_556   S
    N51    O52       2.13733      .   S
    Zr3    O52       2.97324      .   S
    N51    O53       2.06406      .   S
    Zr3    O53       3.03611      .   S
    N51    O54       2.13233      .   S
    Zr1    O54       2.97143      .   S
    N51    O55       2.06489      .   S
    Zr1    O55       3.02375      .   S
    N51    O56       1.53932      .   S
    Zr5    O56       2.56100  1_455   S
