# CIF file generated by openbabel 2.4.90, see http://openbabel.sf.net
data_I
_chemical_name_common ''
_cell_length_a 19.006
_cell_length_b 18.833
_cell_length_c 18.822
_cell_angle_alpha 89.995
_cell_angle_beta 90.001
_cell_angle_gamma 89.998
_space_group_name_H-M_alt 'P 1'
_space_group_name_Hall 'P 1'
loop_
    _symmetry_equiv_pos_as_xyz
    x,y,z
loop_
    _atom_site_label
    _atom_site_type_symbol
    _atom_site_fract_x
    _atom_site_fract_y
    _atom_site_fract_z
    _atom_site_occupancy
    Zr0     Zr   0.45805   0.93567   0.33463   1.000
    Zr1     Zr   0.95806   0.93567   0.33463   1.000
    Zr2     Zr   0.42170   0.83501   0.54457   1.000
    Zr3     Zr   0.92171   0.83501   0.54457   1.000
    Zr4     Zr   0.33284   0.05107   0.56610   1.000
    Zr5     Zr   0.83284   0.05107   0.56610   1.000
    Zr6     Zr   0.45806   0.56440   0.16533   1.000
    Zr7     Zr   0.95806   0.56440   0.16533   1.000
    Zr8     Zr   0.42172   0.66501   0.95539   1.000
    Zr9     Zr   0.92173   0.66501   0.95539   1.000
    Zr10    Zr   0.33283   0.44894   0.93380   1.000
    Zr11    Zr   0.83283   0.44894   0.93380   1.000
    Zr12    Zr   0.45820   0.16550   0.93420   1.000
    Zr13    Zr   0.95821   0.16550   0.93420   1.000
    Zr14    Zr   0.42179   0.95528   0.83528   1.000
    Zr15    Zr   0.92180   0.95528   0.83528   1.000
    Zr16    Zr   0.33265   0.93398   0.05093   1.000
    Zr17    Zr   0.83266   0.93398   0.05093   1.000
    Zr18    Zr   0.45820   0.33449   0.56574   1.000
    Zr19    Zr   0.95821   0.33449   0.56574   1.000
    Zr20    Zr   0.42180   0.54475   0.66468   1.000
    Zr21    Zr   0.92181   0.54475   0.66468   1.000
    Zr22    Zr   0.33266   0.56603   0.44902   1.000
    Zr23    Zr   0.83266   0.56603   0.44902   1.000
    Zr24    Zr   0.04196   0.06434   0.66535   1.000
    Zr25    Zr   0.54197   0.06434   0.66535   1.000
    Zr26    Zr   0.07831   0.16500   0.45542   1.000
    Zr27    Zr   0.57832   0.16500   0.45542   1.000
    Zr28    Zr   0.16717   0.94894   0.43389   1.000
    Zr29    Zr   0.66718   0.94894   0.43389   1.000
    Zr30    Zr   0.04195   0.43561   0.83466   1.000
    Zr31    Zr   0.54196   0.43561   0.83466   1.000
    Zr32    Zr   0.07829   0.33500   0.04460   1.000
    Zr33    Zr   0.57830   0.33500   0.04460   1.000
    Zr34    Zr   0.16718   0.55107   0.06610   1.000
    Zr35    Zr   0.66719   0.55107   0.06610   1.000
    Zr36    Zr   0.04181   0.83451   0.06573   1.000
    Zr37    Zr   0.54182   0.83451   0.06573   1.000
    Zr38    Zr   0.07822   0.04473   0.16470   1.000
    Zr39    Zr   0.57823   0.04473   0.16470   1.000
    Zr40    Zr   0.16736   0.06603   0.94905   1.000
    Zr41    Zr   0.66737   0.06603   0.94905   1.000
    Zr42    Zr   0.04181   0.66552   0.43425   1.000
    Zr43    Zr   0.54182   0.66552   0.43425   1.000
    Zr44    Zr   0.07821   0.45526   0.33530   1.000
    Zr45    Zr   0.57822   0.45526   0.33530   1.000
    Zr46    Zr   0.16735   0.43398   0.55096   1.000
    Zr47    Zr   0.66736   0.43398   0.55096   1.000
    N48     N    0.16709   0.55569   0.43303   1.000
    O49     O    0.22783   0.56353   0.43515   1.000
    O50     O    0.13953   0.51948   0.39209   1.000
    O51     O    0.16411   0.51429   0.47961   1.000
    O52     O    0.12485   0.60009   0.43465   1.000
    N53     N    0.92129   0.95104   0.66509   1.000
    O54     O    0.92094   0.90415   0.62528   1.000
    O55     O    0.88417   0.98829   0.63383   1.000
    O56     O    0.91874   0.94890   0.72754   1.000
    O57     O    0.96956   0.98812   0.66148   1.000
    N58     N    0.83286   0.56690   0.05566   1.000
    O59     O    0.83593   0.52034   0.01420   1.000
    O60     O    0.77208   0.56483   0.06351   1.000
    O61     O    0.87505   0.56493   0.10004   1.000
    O62     O    0.86046   0.60795   0.01953   1.000
    N63     N    0.45386   0.93411   0.16488   1.000
    O64     O    0.45191   0.93237   0.22720   1.000
    O65     O    0.40564   0.93583   0.12735   1.000
    O66     O    0.48580   0.89258   0.13342   1.000
    O67     O    0.49580   0.97876   0.16073   1.000
    N68     N    0.95387   0.93411   0.16488   1.000
    O69     O    0.95192   0.93237   0.22720   1.000
    O70     O    0.99580   0.97876   0.16073   1.000
    O71     O    0.90565   0.93583   0.12735   1.000
    O72     O    0.98580   0.89258   0.13342   1.000
    N73     N    0.07875   0.45111   0.16510   1.000
    O74     O    0.07908   0.40418   0.12530   1.000
    O75     O    0.08128   0.44893   0.22755   1.000
    O76     O    0.11587   0.48837   0.13384   1.000
    O77     O    0.03048   0.48818   0.16148   1.000
    N78     N    0.57876   0.45111   0.16510   1.000
    O79     O    0.58129   0.44893   0.22755   1.000
    O80     O    0.53048   0.48818   0.16148   1.000
    O81     O    0.61588   0.48837   0.13384   1.000
    O82     O    0.57909   0.40418   0.12530   1.000
    N83     N    0.66717   0.43311   0.94432   1.000
    O84     O    0.72794   0.43517   0.93646   1.000
    O85     O    0.62498   0.43508   0.89995   1.000
    O86     O    0.66410   0.47967   0.98576   1.000
    O87     O    0.63957   0.39206   0.98045   1.000
    N88     N    0.83293   0.05569   0.93299   1.000
    O89     O    0.77219   0.06353   0.93513   1.000
    O90     O    0.83591   0.01428   0.97955   1.000
    O91     O    0.87517   0.10009   0.93462   1.000
    O92     O    0.86049   0.01950   0.89204   1.000
    N93     N    0.92117   0.83479   0.95145   1.000
    O94     O    0.88400   0.86613   0.98846   1.000
    O95     O    0.91860   0.77250   0.94912   1.000
    O96     O    0.96939   0.83828   0.98899   1.000
    O97     O    0.92098   0.87462   0.90452   1.000
    N98     N    0.54615   0.43409   0.66491   1.000
    O99     O    0.50422   0.47875   0.66074   1.000
    O100    O    0.54809   0.43233   0.72723   1.000
    O101    O    0.59438   0.43581   0.62739   1.000
    O102    O    0.51422   0.39255   0.63344   1.000
    N103    N    0.33285   0.56690   0.05566   1.000
    O104    O    0.37504   0.56493   0.10004   1.000
    O105    O    0.27208   0.56483   0.06351   1.000
    O106    O    0.33592   0.52034   0.01420   1.000
    O107    O    0.36045   0.60795   0.01953   1.000
    N108    N    0.04619   0.83500   0.43321   1.000
    O109    O    0.01426   0.86730   0.39210   1.000
    O110    O    0.04805   0.77278   0.43084   1.000
    O111    O    0.00421   0.83866   0.47813   1.000
    O112    O    0.09435   0.87248   0.43535   1.000
    N113    N    0.07885   0.16522   0.04847   1.000
    O114    O    0.03063   0.16173   0.01095   1.000
    O115    O    0.08142   0.22750   0.05084   1.000
    O116    O    0.11602   0.13388   0.01144   1.000
    O117    O    0.07903   0.12539   0.09541   1.000
    N118    N    0.16716   0.43311   0.94432   1.000
    O119    O    0.12497   0.43508   0.89995   1.000
    O120    O    0.22793   0.43517   0.93646   1.000
    O121    O    0.16409   0.47967   0.98576   1.000
    O122    O    0.13956   0.39206   0.98045   1.000
    N123    N    0.54620   0.83500   0.43321   1.000
    O124    O    0.54806   0.77278   0.43084   1.000
    O125    O    0.59436   0.87248   0.43535   1.000
    O126    O    0.51426   0.86730   0.39210   1.000
    O127    O    0.50421   0.83866   0.47813   1.000
    N128    N    0.42117   0.66522   0.54846   1.000
    O129    O    0.46939   0.66174   0.51096   1.000
    O130    O    0.38400   0.63387   0.51142   1.000
    O131    O    0.42098   0.62541   0.59542   1.000
    O132    O    0.41859   0.72751   0.55080   1.000
    N133    N    0.42128   0.95104   0.66509   1.000
    O134    O    0.41874   0.94890   0.72754   1.000
    O135    O    0.46956   0.98812   0.66148   1.000
    O136    O    0.38416   0.98829   0.63383   1.000
    O137    O    0.42093   0.90415   0.62528   1.000
    N138    N    0.66719   0.06686   0.55567   1.000
    O139    O    0.72795   0.06480   0.56352   1.000
    O140    O    0.62499   0.06489   0.60004   1.000
    O141    O    0.63960   0.10790   0.51953   1.000
    O142    O    0.66411   0.02030   0.51424   1.000
    N143    N    0.95383   0.16501   0.56677   1.000
    O144    O    0.99581   0.16135   0.52185   1.000
    O145    O    0.90567   0.12753   0.56462   1.000
    O146    O    0.95197   0.22723   0.56915   1.000
    O147    O    0.98576   0.13271   0.60788   1.000
    N148    N    0.45381   0.33496   0.93327   1.000
    O149    O    0.48576   0.36725   0.89216   1.000
    O150    O    0.45194   0.27276   0.93086   1.000
    O151    O    0.40565   0.37246   0.93537   1.000
    O152    O    0.49578   0.33863   0.97820   1.000
    N153    N    0.16718   0.06686   0.55565   1.000
    O154    O    0.12498   0.06489   0.60004   1.000
    O155    O    0.22795   0.06480   0.56351   1.000
    O156    O    0.16411   0.02030   0.51423   1.000
    O157    O    0.13959   0.10790   0.51951   1.000
    N158    N    0.95381   0.33496   0.93326   1.000
    O159    O    0.95195   0.27276   0.93085   1.000
    O160    O    0.99578   0.33863   0.97819   1.000
    O161    O    0.98576   0.36726   0.89215   1.000
    O162    O    0.90566   0.37246   0.93535   1.000
    N163    N    0.66710   0.94432   0.06700   1.000
    O164    O    0.62486   0.89992   0.06535   1.000
    O165    O    0.63953   0.98050   0.10795   1.000
    O166    O    0.66411   0.98573   0.02044   1.000
    O167    O    0.72784   0.93648   0.06486   1.000
    N168    N    0.33292   0.05569   0.93299   1.000
    O169    O    0.37516   0.10009   0.93462   1.000
    O170    O    0.36048   0.01950   0.89204   1.000
    O171    O    0.27218   0.06353   0.93513   1.000
    O172    O    0.33590   0.01428   0.97955   1.000
    N173    N    0.42126   0.54890   0.83489   1.000
    O174    O    0.42093   0.59583   0.87469   1.000
    O175    O    0.46954   0.51183   0.83851   1.000
    O176    O    0.38414   0.51164   0.86613   1.000
    O177    O    0.41873   0.55108   0.77244   1.000
    N178    N    0.83293   0.44432   0.56691   1.000
    O179    O    0.77219   0.43648   0.56481   1.000
    O180    O    0.86049   0.48053   0.60785   1.000
    O181    O    0.83591   0.48572   0.52033   1.000
    O182    O    0.87517   0.39992   0.56531   1.000
    N183    N    0.04620   0.66504   0.06672   1.000
    O184    O    0.09436   0.62754   0.06459   1.000
    O185    O    0.01426   0.63275   0.10783   1.000
    O186    O    0.04807   0.72725   0.06911   1.000
    O187    O    0.00424   0.66138   0.02179   1.000
    N188    N    0.57885   0.16522   0.04847   1.000
    O189    O    0.57904   0.12539   0.09541   1.000
    O190    O    0.58142   0.22750   0.05084   1.000
    O191    O    0.53063   0.16173   0.01095   1.000
    O192    O    0.61603   0.13388   0.01144   1.000
    N193    N    0.45382   0.16501   0.56677   1.000
    O194    O    0.49581   0.16135   0.52185   1.000
    O195    O    0.45196   0.22723   0.56915   1.000
    O196    O    0.48576   0.13271   0.60788   1.000
    O197    O    0.40566   0.12753   0.56462   1.000
    N198    N    0.45386   0.56592   0.33508   1.000
    O199    O    0.40564   0.56420   0.37260   1.000
    O200    O    0.48580   0.60746   0.36655   1.000
    O201    O    0.45192   0.56768   0.27275   1.000
    O202    O    0.49580   0.52126   0.33925   1.000
    N203    N    0.57885   0.33479   0.45150   1.000
    O204    O    0.61602   0.36613   0.48854   1.000
    O205    O    0.58143   0.27249   0.44916   1.000
    O206    O    0.53063   0.33827   0.48902   1.000
    O207    O    0.57903   0.37460   0.40455   1.000
    N208    N    0.42116   0.83479   0.95145   1.000
    O209    O    0.41860   0.77250   0.94912   1.000
    O210    O    0.42098   0.87462   0.90452   1.000
    O211    O    0.38399   0.86613   0.98846   1.000
    O212    O    0.46939   0.83828   0.98899   1.000
    N213    N    0.33292   0.44432   0.56691   1.000
    O214    O    0.36048   0.48053   0.60785   1.000
    O215    O    0.27218   0.43648   0.56481   1.000
    O216    O    0.37516   0.39992   0.56531   1.000
    O217    O    0.33590   0.48572   0.52033   1.000
    N218    N    0.07884   0.33479   0.45150   1.000
    O219    O    0.08142   0.27249   0.44916   1.000
    O220    O    0.11601   0.36613   0.48854   1.000
    O221    O    0.07903   0.37460   0.40455   1.000
    O222    O    0.03062   0.33827   0.48902   1.000
    N223    N    0.07873   0.04893   0.33489   1.000
    O224    O    0.11585   0.01166   0.36616   1.000
    O225    O    0.07908   0.09584   0.37470   1.000
    O226    O    0.08127   0.05109   0.27245   1.000
    O227    O    0.03045   0.01187   0.33850   1.000
    N228    N    0.83284   0.93315   0.44414   1.000
    O229    O    0.86043   0.89211   0.48037   1.000
    O230    O    0.83591   0.97971   0.48566   1.000
    O231    O    0.77207   0.93521   0.43638   1.000
    O232    O    0.87504   0.93512   0.39985   1.000
    N233    N    0.33283   0.93315   0.44422   1.000
    O234    O    0.33590   0.97971   0.48569   1.000
    O235    O    0.27206   0.93521   0.43642   1.000
    O236    O    0.36042   0.89211   0.48041   1.000
    O237    O    0.37503   0.93512   0.39977   1.000
    N238    N    0.95387   0.56592   0.33508   1.000
    O239    O    0.98580   0.60746   0.36655   1.000
    O240    O    0.90565   0.56420   0.37260   1.000
    O241    O    0.95193   0.56768   0.27275   1.000
    O242    O    0.99580   0.52126   0.33925   1.000
    N243    N    0.92118   0.66522   0.54846   1.000
    O244    O    0.88400   0.63387   0.51142   1.000
    O245    O    0.91860   0.72751   0.55080   1.000
    O246    O    0.92099   0.62541   0.59542   1.000
    O247    O    0.96939   0.66174   0.51096   1.000
    N248    N    0.04615   0.43409   0.66491   1.000
    O249    O    0.01422   0.39255   0.63344   1.000
    O250    O    0.00422   0.47875   0.66074   1.000
    O251    O    0.04809   0.43233   0.72723   1.000
    O252    O    0.09437   0.43581   0.62739   1.000
    N253    N    0.92127   0.54890   0.83489   1.000
    O254    O    0.88415   0.51164   0.86613   1.000
    O255    O    0.92094   0.59583   0.87469   1.000
    O256    O    0.96954   0.51183   0.83851   1.000
    O257    O    0.91874   0.55108   0.77244   1.000
    N258    N    0.57874   0.04893   0.33489   1.000
    O259    O    0.57908   0.09584   0.37470   1.000
    O260    O    0.53046   0.01187   0.33850   1.000
    O261    O    0.58128   0.05109   0.27245   1.000
    O262    O    0.61586   0.01166   0.36616   1.000
    N263    N    0.66710   0.55569   0.43303   1.000
    O264    O    0.66411   0.51429   0.47961   1.000
    O265    O    0.72784   0.56353   0.43515   1.000
    O266    O    0.62486   0.60009   0.43465   1.000
    O267    O    0.63953   0.51948   0.39209   1.000
    N268    N    0.16709   0.94432   0.06700   1.000
    O269    O    0.13953   0.98050   0.10795   1.000
    O270    O    0.16411   0.98573   0.02044   1.000
    O271    O    0.22783   0.93648   0.06486   1.000
    O272    O    0.12485   0.89992   0.06535   1.000
    N273    N    0.04615   0.06589   0.83509   1.000
    O274    O    0.00422   0.02125   0.83925   1.000
    O275    O    0.04810   0.06764   0.77277   1.000
    O276    O    0.01422   0.10743   0.86655   1.000
    O277    O    0.09437   0.06418   0.87262   1.000
    N278    N    0.54616   0.06589   0.83509   1.000
    O279    O    0.59438   0.06418   0.87262   1.000
    O280    O    0.50422   0.02125   0.83925   1.000
    O281    O    0.51422   0.10743   0.86655   1.000
    O282    O    0.54811   0.06764   0.77277   1.000
    N283    N    0.54621   0.66504   0.06670   1.000
    O284    O    0.59437   0.62754   0.06458   1.000
    O285    O    0.50424   0.66138   0.02177   1.000
    O286    O    0.54808   0.72725   0.06910   1.000
    O287    O    0.51426   0.63275   0.10781   1.000
loop_
    _geom_bond_atom_site_label_1
    _geom_bond_atom_site_label_2
    _geom_bond_distance
    _geom_bond_site_symmetry_2
    _ccdc_geom_bond_type
    N48    O49       1.16449      .   S
    Zr22   O49       2.00992      .   S
    N48    O50       1.15470      .   S
    Zr44   O50       1.99087      .   S
    N48    O51       1.17449      .   S
    Zr46   O51       2.02358      .   S
    N48    O52       1.15972      .   S
    Zr42   O52       2.00225      .   S
    N53    O54       1.15823      .   S
    Zr3    O54       2.00095      .   S
    N53    O55       1.15581      .   S
    Zr5    O55       1.99350  1_545   S
    N53    O56       1.17705      .   S
    Zr15   O56       2.03230      .   S
    N53    O57       1.15500      .   S
    Zr24   O57       1.98989  1_445   S
    N58    O59       1.17529      .   S
    Zr11   O59       2.02540  1_556   S
    N58    O60       1.16515      .   S
    Zr35   O60       2.01100      .   S
    N58    O61       1.15843      .   S
    Zr7    O61       1.99995      .   S
    N58    O62       1.15544      .   S
    Zr9    O62       1.99210  1_556   S
    N63    O64       1.17400      .   S
    Zr0    O64       2.02643      .   S
    N63    O65       1.15748      .   S
    Zr16   O65       1.99865      .   S
    N63    O66       1.15373      .   S
    Zr37   O66       1.98820      .   S
    N63    O67       1.16122      .   S
    Zr39   O67       2.00093  1_545   S
    N68    O69       1.17400      .   S
    Zr1    O69       2.02643      .   S
    N68    O70       1.16117      .   S
    Zr38   O70       2.00075  1_445   S
    N68    O71       1.15748      .   S
    Zr17   O71       1.99865      .   S
    N68    O72       1.15369      .   S
    Zr36   O72       1.98808  1_455   S
    N73    O74       1.15858      .   S
    Zr32   O74       2.00133      .   S
    N73    O75       1.17714      .   S
    Zr44   O75       2.03244      .   S
    N73    O76       1.15600      .   S
    Zr34   O76       1.99273      .   S
    N73    O77       1.15491      .   S
    Zr7    O77       1.98987  1_655   S
    N78    O79       1.17714      .   S
    Zr45   O79       2.03244      .   S
    N78    O80       1.15498      .   S
    Zr6    O80       1.99003      .   S
    N78    O81       1.15600      .   S
    Zr35   O81       1.99273      .   S
    N78    O82       1.15858      .   S
    Zr33   O82       2.00133      .   S
    N83    O84       1.16519      .   S
    Zr11   O84       2.01102      .   S
    N83    O85       1.15842      .   S
    Zr31   O85       1.99989      .   S
    N83    O86       1.17502      .   S
    Zr35   O86       2.02453  1_554   S
    N83    O87       1.15544      .   S
    Zr33   O87       1.99216  1_554   S
    N88    O89       1.16449      .   S
    Zr41   O89       2.00992      .   S
    N88    O90       1.17451      .   S
    Zr17   O90       2.02365  1_564   S
    N88    O91       1.15965      .   S
    Zr13   O91       2.00216      .   S
    N88    O92       1.15455      .   S
    Zr15   O92       1.99051  1_565   S
    N93    O94       1.15446      .   S
    Zr17   O94       1.99191  1_554   S
    N93    O95       1.17490      .   S
    Zr9    O95       2.02870      .   S
    N93    O96       1.15902      .   S
    Zr36   O96       1.99644  1_454   S
    N93    O97       1.15874      .   S
    Zr15   O97       2.00153      .   S
    N98    O99       1.16133      .   S
    Zr20   O99       2.00107      .   S
    N98    O100      1.17416      .   S
    Zr31   O100      2.02630      .   S
    N98    O101      1.15748      .   S
    Zr47   O101      1.99867      .   S
    N98    O102      1.15379      .   S
    Zr18   O102      1.98823      .   S
    N103   O104      1.15843      .   S
    Zr6    O104      1.99995      .   S
    N103   O105      1.16514      .   S
    Zr34   O105      2.01098      .   S
    N103   O106      1.17530      .   S
    Zr10   O106      2.02541  1_556   S
    N103   O107      1.15544      .   S
    Zr8    O107      1.99210  1_556   S
    N108   O109      1.15621      .   S
    Zr1    O109      1.99212  1_655   S
    N108   O110      1.17308      .   S
    Zr42   O110      2.02462      .   S
    N108   O111      1.16467      .   S
    Zr3    O111      2.00673  1_655   S
    N108   O112      1.15670      .   S
    Zr28   O112      1.99750      .   S
    N113   O114      1.15882      .   S
    Zr13   O114      1.99661  1_656   S
    N113   O115      1.17493      .   S
    Zr32   O115      2.02867      .   S
    N113   O116      1.15480      .   S
    Zr40   O116      1.99095  1_556   S
    N113   O117      1.15885      .   S
    Zr38   O117      2.00211      .   S
    N118   O119      1.15842      .   S
    Zr30   O119      1.99989      .   S
    N118   O120      1.16519      .   S
    Zr10   O120      2.01102      .   S
    N118   O121      1.17502      .   S
    Zr34   O121      2.02454  1_554   S
    N118   O122      1.15544      .   S
    Zr32   O122      1.99216  1_554   S
    N123   O124      1.17308      .   S
    Zr43   O124      2.02463      .   S
    N123   O125      1.15670      .   S
    Zr29   O125      1.99749      .   S
    N123   O126      1.15625      .   S
    Zr0    O126      1.99224      .   S
    N123   O127      1.16472      .   S
    Zr2    O127      2.00690      .   S
    N128   O129      1.15869      .   S
    Zr43   O129      1.99614      .   S
    N128   O130      1.15491      .   S
    Zr22   O130      1.99112      .   S
    N128   O131      1.15904      .   S
    Zr20   O131      2.00170      .   S
    N128   O132      1.17498      .   S
    Zr2    O132      2.02877      .   S
    N133   O134      1.17705      .   S
    Zr14   O134      2.03230      .   S
    N133   O135      1.15506      .   S
    Zr25   O135      1.99004  1_545   S
    N133   O136      1.15581      .   S
    Zr4    O136      1.99350  1_545   S
    N133   O137      1.15823      .   S
    Zr2    O137      2.00095      .   S
    N138   O139      1.16504      .   S
    Zr5    O139      2.01083      .   S
    N138   O140      1.15858      .   S
    Zr25   O140      2.00016      .   S
    N138   O141      1.15541      .   S
    Zr27   O141      1.99205      .   S
    N138   O142      1.17484      .   S
    Zr29   O142      2.02415  1_565   S
    N143   O144      1.16458      .   S
    Zr26   O144      2.00664  1_455   S
    N143   O145      1.15670      .   S
    Zr5    O145      1.99750      .   S
    N143   O146      1.17308      .   S
    Zr19   O146      2.02461      .   S
    N143   O147      1.15627      .   S
    Zr24   O147      1.99213  1_455   S
    N148   O149      1.15641      .   S
    Zr31   O149      1.99237      .   S
    N148   O150      1.17299      .   S
    Zr12   O150      2.02444      .   S
    N148   O151      1.15675      .   S
    Zr10   O151      1.99764      .   S
    N148   O152      1.16454      .   S
    Zr33   O152      2.00661  1_554   S
    N153   O154      1.15866      .   S
    Zr24   O154      2.00022      .   S
    N153   O155      1.16505      .   S
    Zr4    O155      2.01083      .   S
    N153   O156      1.17476      .   S
    Zr28   O156      2.02406  1_565   S
    N153   O157      1.15551      .   S
    Zr26   O157      1.99181      .   S
    N158   O159      1.17299      .   S
    Zr13   O159      2.02444      .   S
    N158   O160      1.16457      .   S
    Zr32   O160      2.00650  1_454   S
    N158   O161      1.15630      .   S
    Zr30   O161      1.99220  1_455   S
    N158   O162      1.15675      .   S
    Zr11   O162      1.99764      .   S
    N163   O164      1.15966      .   S
    Zr37   O164      2.00217      .   S
    N163   O165      1.15453      .   S
    Zr39   O165      1.99045  1_545   S
    N163   O166      1.17453      .   S
    Zr41   O166      2.02374  1_546   S
    N163   O167      1.16450      .   S
    Zr17   O167      2.00994      .   S
    N168   O169      1.15965      .   S
    Zr12   O169      2.00216      .   S
    N168   O170      1.15455      .   S
    Zr14   O170      1.99051  1_565   S
    N168   O171      1.16449      .   S
    Zr40   O171      2.00992      .   S
    N168   O172      1.17451      .   S
    Zr16   O172      2.02365  1_564   S
    N173   O174      1.15860      .   S
    Zr8    O174      2.00134      .   S
    N173   O175      1.15498      .   S
    Zr31   O175      1.99003      .   S
    N173   O176      1.15579      .   S
    Zr10   O176      1.99193      .   S
    N173   O177      1.17717      .   S
    Zr20   O177      2.03256      .   S
    N178   O179      1.16447      .   S
    Zr47   O179      2.00988      .   S
    N178   O180      1.15472      .   S
    Zr21   O180      1.99128      .   S
    N178   O181      1.17444      .   S
    Zr23   O181      2.02310      .   S
    N178   O182      1.15971      .   S
    Zr19   O182      2.00226      .   S
    N183   O184      1.15677      .   S
    Zr34   O184      1.99763      .   S
    N183   O185      1.15638      .   S
    Zr7    O185      1.99231  1_655   S
    N183   O186      1.17298      .   S
    Zr36   O186      2.02445      .   S
    N183   O187      1.16448      .   S
    Zr9    O187      2.00637  1_656   S
    N188   O189      1.15885      .   S
    Zr39   O189      2.00211      .   S
    N188   O190      1.17493      .   S
    Zr33   O190      2.02867      .   S
    N188   O191      1.15888      .   S
    Zr12   O191      1.99677  1_556   S
    N188   O192      1.15480      .   S
    Zr41   O192      1.99095  1_556   S
    N193   O194      1.16463      .   S
    Zr27   O194      2.00682      .   S
    N193   O195      1.17308      .   S
    Zr18   O195      2.02461      .   S
    N193   O196      1.15630      .   S
    Zr25   O196      1.99224      .   S
    N193   O197      1.15671      .   S
    Zr4    O197      1.99750      .   S
    N198   O199      1.15748      .   S
    Zr22   O199      1.99860      .   S
    N198   O200      1.15378      .   S
    Zr43   O200      1.98828      .   S
    N198   O201      1.17412      .   S
    Zr6    O201      2.02626      .   S
    N198   O202      1.16133      .   S
    Zr45   O202      2.00107      .   S
    N203   O204      1.15491      .   S
    Zr47   O204      1.99129      .   S
    N203   O205      1.17499      .   S
    Zr27   O205      2.02881      .   S
    N203   O206      1.15884      .   S
    Zr18   O206      1.99632      .   S
    N203   O207      1.15893      .   S
    Zr45   O207      2.00160      .   S
    N208   O209      1.17490      .   S
    Zr8    O209      2.02870      .   S
    N208   O210      1.15874      .   S
    Zr14   O210      2.00153      .   S
    N208   O211      1.15446      .   S
    Zr16   O211      1.99191  1_554   S
    N208   O212      1.15908      .   S
    Zr37   O212      1.99660  1_554   S
    N213   O214      1.15472      .   S
    Zr20   O214      1.99128      .   S
    N213   O215      1.16447      .   S
    Zr46   O215      2.00988      .   S
    N213   O216      1.15971      .   S
    Zr18   O216      2.00226      .   S
    N213   O217      1.17444      .   S
    Zr22   O217      2.02310      .   S
    N218   O219      1.17499      .   S
    Zr26   O219      2.02881      .   S
    N218   O220      1.15491      .   S
    Zr46   O220      1.99129      .   S
    N218   O221      1.15893      .   S
    Zr44   O221      2.00160      .   S
    N218   O222      1.15878      .   S
    Zr19   O222      1.99616  1_655   S
    N223   O224      1.15613      .   S
    Zr28   O224      1.99287  1_565   S
    N223   O225      1.15850      .   S
    Zr26   O225      2.00125      .   S
    N223   O226      1.17705      .   S
    Zr38   O226      2.03237      .   S
    N223   O227      1.15479      .   S
    Zr1    O227      1.98964  1_665   S
    N228   O229      1.15642      .   S
    Zr3    O229      1.99309      .   S
    N228   O230      1.17594      .   S
    Zr5    O230      2.02546  1_545   S
    N228   O231      1.16482      .   S
    Zr29   O231      2.01078      .   S
    N228   O232      1.15738      .   S
    Zr1    O232      1.99919      .   S
    N233   O234      1.17546      .   S
    Zr4    O234      2.02491  1_545   S
    N233   O235      1.16491      .   S
    Zr28   O235      2.01079      .   S
    N233   O236      1.15599      .   S
    Zr2    O236      1.99264      .   S
    N233   O237      1.15960      .   S
    Zr0    O237      1.99820      .   S
    N238   O239      1.15374      .   S
    Zr42   O239      1.98815  1_455   S
    N238   O240      1.15748      .   S
    Zr23   O240      1.99860      .   S
    N238   O241      1.17412      .   S
    Zr7    O241      2.02626      .   S
    N238   O242      1.16128      .   S
    Zr44   O242      2.00089  1_455   S
    N243   O244      1.15491      .   S
    Zr23   O244      1.99112      .   S
    N243   O245      1.17498      .   S
    Zr3    O245      2.02877      .   S
    N243   O246      1.15904      .   S
    Zr21   O246      2.00170      .   S
    N243   O247      1.15863      .   S
    Zr42   O247      1.99598  1_455   S
    N248   O249      1.15375      .   S
    Zr19   O249      1.98810  1_655   S
    N248   O250      1.16128      .   S
    Zr21   O250      2.00089  1_655   S
    N248   O251      1.17416      .   S
    Zr30   O251      2.02630      .   S
    N248   O252      1.15748      .   S
    Zr46   O252      1.99867      .   S
    N253   O254      1.15579      .   S
    Zr11   O254      1.99193      .   S
    N253   O255      1.15859      .   S
    Zr9    O255      2.00134      .   S
    N253   O256      1.15491      .   S
    Zr30   O256      1.98986  1_455   S
    N253   O257      1.17717      .   S
    Zr21   O257      2.03256      .   S
    N258   O259      1.15850      .   S
    Zr27   O259      2.00125      .   S
    N258   O260      1.15485      .   S
    Zr0    O260      1.98980  1_565   S
    N258   O261      1.17705      .   S
    Zr39   O261      2.03237      .   S
    N258   O262      1.15613      .   S
    Zr29   O262      1.99287  1_565   S
    N263   O264      1.17449      .   S
    Zr47   O264      2.02358      .   S
    N263   O265      1.16449      .   S
    Zr23   O265      2.00992      .   S
    N263   O266      1.15971      .   S
    Zr43   O266      2.00225      .   S
    N263   O267      1.15470      .   S
    Zr45   O267      1.99087      .   S
    N268   O269      1.15453      .   S
    Zr38   O269      1.99045  1_545   S
    N268   O270      1.17453      .   S
    Zr40   O270      2.02374  1_546   S
    N268   O271      1.16450      .   S
    Zr16   O271      2.00994      .   S
    N268   O272      1.15966      .   S
    Zr36   O272      2.00217      .   S
    N273   O274      1.16117      .   S
    Zr15   O274      2.00074  1_665   S
    N273   O275      1.17403      .   S
    Zr24   O275      2.02618      .   S
    N273   O276      1.15365      .   S
    Zr13   O276      1.98767  1_655   S
    N273   O277      1.15758      .   S
    Zr40   O277      1.99870      .   S
    N278   O279      1.15758      .   S
    Zr41   O279      1.99870      .   S
    N278   O280      1.16122      .   S
    Zr14   O280      2.00092  1_565   S
    N278   O281      1.15369      .   S
    Zr12   O281      1.98779      .   S
    N278   O282      1.17403      .   S
    Zr25   O282      2.02618      .   S
    N283   O284      1.15676      .   S
    Zr35   O284      1.99763      .   S
    N283   O285      1.16453      .   S
    Zr8    O285      2.00637  1_556   S
    N283   O286      1.17299      .   S
    Zr37   O286      2.02445      .   S
    N283   O287      1.15636      .   S
    Zr6    O287      1.99264      .   S
