# CIF file generated by openbabel 2.4.90, see http://openbabel.sf.net
data_I
_chemical_name_common ''
_cell_length_a 19.006
_cell_length_b 18.833
_cell_length_c 18.822
_cell_angle_alpha 89.995
_cell_angle_beta 90.001
_cell_angle_gamma 89.998
_space_group_name_H-M_alt 'P 1'
_space_group_name_Hall 'P 1'
loop_
    _symmetry_equiv_pos_as_xyz
    x,y,z
loop_
    _atom_site_label
    _atom_site_type_symbol
    _atom_site_fract_x
    _atom_site_fract_y
    _atom_site_fract_z
    _atom_site_occupancy
    C0      C    0.45805   0.93567   0.33463   1.000
    C1      C    0.95806   0.93567   0.33463   1.000
    C2      C    0.42170   0.83501   0.54457   1.000
    C3      C    0.92171   0.83501   0.54457   1.000
    C4      C    0.33284   0.05107   0.56610   1.000
    C5      C    0.83284   0.05107   0.56610   1.000
    C6      C    0.45806   0.56440   0.16533   1.000
    C7      C    0.95806   0.56440   0.16533   1.000
    C8      C    0.42172   0.66501   0.95539   1.000
    C9      C    0.92173   0.66501   0.95539   1.000
    C10     C    0.33283   0.44894   0.93380   1.000
    C11     C    0.83283   0.44894   0.93380   1.000
    C12     C    0.45820   0.16550   0.93420   1.000
    C13     C    0.95821   0.16550   0.93420   1.000
    C14     C    0.42179   0.95528   0.83528   1.000
    C15     C    0.92180   0.95528   0.83528   1.000
    C16     C    0.33265   0.93398   0.05093   1.000
    C17     C    0.83266   0.93398   0.05093   1.000
    C18     C    0.45820   0.33449   0.56574   1.000
    C19     C    0.95821   0.33449   0.56574   1.000
    C20     C    0.42180   0.54475   0.66468   1.000
    C21     C    0.92181   0.54475   0.66468   1.000
    C22     C    0.33266   0.56603   0.44902   1.000
    C23     C    0.83266   0.56603   0.44902   1.000
    C24     C    0.04196   0.06434   0.66535   1.000
    C25     C    0.54197   0.06434   0.66535   1.000
    C26     C    0.07831   0.16500   0.45542   1.000
    C27     C    0.57832   0.16500   0.45542   1.000
    C28     C    0.16717   0.94894   0.43389   1.000
    C29     C    0.66718   0.94894   0.43389   1.000
    C30     C    0.04195   0.43561   0.83466   1.000
    C31     C    0.54196   0.43561   0.83466   1.000
    C32     C    0.07829   0.33500   0.04460   1.000
    C33     C    0.57830   0.33500   0.04460   1.000
    C34     C    0.16718   0.55107   0.06610   1.000
    C35     C    0.66719   0.55107   0.06610   1.000
    C36     C    0.04181   0.83451   0.06573   1.000
    C37     C    0.54182   0.83451   0.06573   1.000
    C38     C    0.07822   0.04473   0.16470   1.000
    C39     C    0.57823   0.04473   0.16470   1.000
    C40     C    0.16736   0.06603   0.94905   1.000
    C41     C    0.66737   0.06603   0.94905   1.000
    C42     C    0.04181   0.66552   0.43425   1.000
    C43     C    0.54182   0.66552   0.43425   1.000
    C44     C    0.07821   0.45526   0.33530   1.000
    C45     C    0.57822   0.45526   0.33530   1.000
    C46     C    0.16735   0.43398   0.55096   1.000
    C47     C    0.66736   0.43398   0.55096   1.000
    C48     C    0.33290   0.93310   0.44489   1.000
    C49     C    0.83291   0.93310   0.44400   1.000
    C50     C    0.42137   0.95143   0.66497   1.000
    C51     C    0.92137   0.95143   0.66497   1.000
    C52     C    0.45429   0.16479   0.56664   1.000
    C53     C    0.95430   0.16479   0.56664   1.000
    C54     C    0.33292   0.56696   0.05509   1.000
    C55     C    0.83293   0.56696   0.05509   1.000
    C56     C    0.42135   0.54855   0.83501   1.000
    C57     C    0.92136   0.54855   0.83501   1.000
    C58     C    0.45428   0.33519   0.93340   1.000
    C59     C    0.95429   0.33519   0.93340   1.000
    C60     C    0.33302   0.05514   0.93292   1.000
    C61     C    0.83303   0.05514   0.93292   1.000
    C62     C    0.42132   0.83496   0.95185   1.000
    C63     C    0.92133   0.83496   0.95185   1.000
    C64     C    0.45433   0.93422   0.16463   1.000
    C65     C    0.95433   0.93422   0.16463   1.000
    C66     C    0.33302   0.44487   0.56701   1.000
    C67     C    0.83303   0.44487   0.56701   1.000
    C68     C    0.42133   0.66506   0.54812   1.000
    C69     C    0.92133   0.66506   0.54812   1.000
    C70     C    0.45433   0.56581   0.33533   1.000
    C71     C    0.95434   0.56581   0.33533   1.000
    C72     C    0.16711   0.06691   0.55509   1.000
    C73     C    0.66712   0.06691   0.55509   1.000
    C74     C    0.07865   0.04858   0.33502   1.000
    C75     C    0.57865   0.04858   0.33502   1.000
    C76     C    0.04572   0.83522   0.43334   1.000
    C77     C    0.54573   0.83522   0.43334   1.000
    C78     C    0.16709   0.43305   0.94490   1.000
    C79     C    0.66710   0.43305   0.94490   1.000
    C80     C    0.07866   0.45146   0.16497   1.000
    C81     C    0.57867   0.45146   0.16497   1.000
    C82     C    0.04573   0.66482   0.06659   1.000
    C83     C    0.54574   0.66482   0.06659   1.000
    C84     C    0.16699   0.94487   0.06707   1.000
    C85     C    0.66700   0.94487   0.06707   1.000
    C86     C    0.07869   0.16505   0.04814   1.000
    C87     C    0.57870   0.16505   0.04814   1.000
    C88     C    0.04569   0.06578   0.83530   1.000
    C89     C    0.54569   0.06578   0.83530   1.000
    C90     C    0.16699   0.55514   0.43290   1.000
    C91     C    0.66700   0.55514   0.43290   1.000
    C92     C    0.07868   0.33495   0.45186   1.000
    C93     C    0.57869   0.33495   0.45186   1.000
    C94     C    0.04568   0.43419   0.66465   1.000
    C95     C    0.54569   0.43419   0.66465   1.000
    C96     C    0.37641   0.93850   0.37600   1.000
    C97     C    0.87642   0.93850   0.37650   1.000
    C98     C    0.25542   0.92558   0.42334   1.000
    C99     C    0.75542   0.92558   0.42334   1.000
    C100    C    0.35432   0.86711   0.48863   1.000
    C101    C    0.85433   0.86711   0.48863   1.000
    C102    C    0.34511   0.00146   0.48824   1.000
    C103    C    0.84512   0.00146   0.48824   1.000
    C104    C    0.49371   0.98604   0.65040   1.000
    C105    C    0.99372   0.98604   0.65040   1.000
    C106    C    0.36125   0.00000   0.63902   1.000
    C107    C    0.86126   0.00000   0.63902   1.000
    C108    C    0.41948   0.87950   0.62638   1.000
    C109    C    0.91949   0.87950   0.62638   1.000
    C110    C    0.41059   0.93824   0.74469   1.000
    C111    C    0.91060   0.93824   0.74469   1.000
    C112    C    0.49727   0.15037   0.49844   1.000
    C113    C    0.99727   0.15037   0.49844   1.000
    C114    C    0.49342   0.13648   0.63263   1.000
    C115    C    0.99342   0.13648   0.63263   1.000
    C116    C    0.38215   0.12902   0.55883   1.000
    C117    C    0.88216   0.12902   0.55883   1.000
    C118    C    0.44199   0.24439   0.57731   1.000
    C119    C    0.94200   0.24439   0.57731   1.000
    C120    C    0.37640   0.56151   0.12350   1.000
    C121    C    0.87641   0.56151   0.12350   1.000
    C122    C    0.25542   0.57446   0.07661   1.000
    C123    C    0.75543   0.57446   0.07661   1.000
    C124    C    0.35438   0.63296   0.01141   1.000
    C125    C    0.85439   0.63296   0.01141   1.000
    C126    C    0.34514   0.49862   0.01169   1.000
    C127    C    0.84515   0.49862   0.01169   1.000
    C128    C    0.49367   0.51390   0.84961   1.000
    C129    C    0.99368   0.51390   0.84961   1.000
    C130    C    0.36122   0.49982   0.86094   1.000
    C131    C    0.86123   0.49982   0.86094   1.000
    C132    C    0.41947   0.62049   0.87360   1.000
    C133    C    0.91948   0.62049   0.87360   1.000
    C134    C    0.41060   0.56175   0.75529   1.000
    C135    C    0.91061   0.56175   0.75529   1.000
    C136    C    0.49720   0.34957   0.00165   1.000
    C137    C    0.99721   0.34957   0.00165   1.000
    C138    C    0.49345   0.36348   0.86743   1.000
    C139    C    0.99346   0.36348   0.86743   1.000
    C140    C    0.38215   0.37099   0.94116   1.000
    C141    C    0.88216   0.37099   0.94110   1.000
    C142    C    0.44195   0.25560   0.92270   1.000
    C143    C    0.94196   0.25560   0.92270   1.000
    C144    C    0.37661   0.12348   0.93832   1.000
    C145    C    0.87661   0.12348   0.93832   1.000
    C146    C    0.25552   0.07671   0.92549   1.000
    C147    C    0.75553   0.07671   0.92549   1.000
    C148    C    0.35431   0.01136   0.86690   1.000
    C149    C    0.85432   0.01136   0.86690   1.000
    C150    C    0.34513   0.01175   0.00130   1.000
    C151    C    0.84514   0.01175   0.00130   1.000
    C152    C    0.49340   0.84902   0.98732   1.000
    C153    C    0.99341   0.84902   0.98732   1.000
    C154    C    0.36098   0.86097   0.00000   1.000
    C155    C    0.86099   0.86097   0.00000   1.000
    C156    C    0.41978   0.87360   0.87990   1.000
    C157    C    0.91979   0.87360   0.87990   1.000
    C158    C    0.41033   0.75542   0.93819   1.000
    C159    C    0.91034   0.75542   0.93819   1.000
    C160    C    0.49724   0.00209   0.14845   1.000
    C161    C    0.99725   0.00209   0.14845   1.000
    C162    C    0.49366   0.86757   0.13819   1.000
    C163    C    0.99366   0.86757   0.13819   1.000
    C164    C    0.38219   0.94111   0.12872   1.000
    C165    C    0.88220   0.94111   0.12872   1.000
    C166    C    0.44188   0.92558   0.24440   1.000
    C167    C    0.94189   0.92558   0.24440   1.000
    C168    C    0.37661   0.37653   0.56167   1.000
    C169    C    0.87662   0.37653   0.56167   1.000
    C170    C    0.25553   0.42329   0.57447   1.000
    C171    C    0.75554   0.42329   0.57447   1.000
    C172    C    0.35430   0.48873   0.63290   1.000
    C173    C    0.85431   0.48873   0.63290   1.000
    C174    C    0.34513   0.48819   0.49850   1.000
    C175    C    0.84513   0.48819   0.49850   1.000
    C176    C    0.49341   0.65100   0.51266   1.000
    C177    C    0.99341   0.65100   0.51266   1.000
    C178    C    0.36099   0.63902   0.49975   1.000
    C179    C    0.86100   0.63902   0.49975   1.000
    C180    C    0.41980   0.62644   0.62008   1.000
    C181    C    0.91981   0.62644   0.62008   1.000
    C182    C    0.41033   0.74460   0.56170   1.000
    C183    C    0.91033   0.74460   0.56170   1.000
    C184    C    0.49724   0.49794   0.35153   1.000
    C185    C    0.99725   0.49794   0.35153   1.000
    C186    C    0.49365   0.63246   0.36179   1.000
    C187    C    0.99366   0.63246   0.36179   1.000
    C188    C    0.38219   0.55893   0.37122   1.000
    C189    C    0.88219   0.55893   0.37122   1.000
    C190    C    0.44191   0.57447   0.25553   1.000
    C191    C    0.94192   0.57447   0.25553   1.000
    C192    C    0.12360   0.06151   0.62349   1.000
    C193    C    0.62361   0.06151   0.62349   1.000
    C194    C    0.24460   0.07443   0.57665   1.000
    C195    C    0.74460   0.07443   0.57665   1.000
    C196    C    0.14569   0.13289   0.51130   1.000
    C197    C    0.64570   0.13289   0.51136   1.000
    C198    C    0.15490   0.99855   0.51174   1.000
    C199    C    0.65490   0.99855   0.51174   1.000
    C200    C    0.00630   0.01397   0.34958   1.000
    C201    C    0.50631   0.01397   0.34958   1.000
    C202    C    0.13876   0.99983   0.36096   1.000
    C203    C    0.63877   0.99983   0.36096   1.000
    C204    C    0.08053   0.12051   0.37360   1.000
    C205    C    0.58054   0.12051   0.37360   1.000
    C206    C    0.08942   0.06177   0.25530   1.000
    C207    C    0.58942   0.06177   0.25530   1.000
    C208    C    0.00275   0.84964   0.50155   1.000
    C209    C    0.50275   0.84964   0.50155   1.000
    C210    C    0.00660   0.86353   0.36736   1.000
    C211    C    0.50660   0.86353   0.36736   1.000
    C212    C    0.11786   0.87099   0.44110   1.000
    C213    C    0.61787   0.87099   0.44110   1.000
    C214    C    0.05802   0.75562   0.42268   1.000
    C215    C    0.55803   0.75562   0.42268   1.000
    C216    C    0.12361   0.43850   0.87648   1.000
    C217    C    0.62362   0.43850   0.87648   1.000
    C218    C    0.24459   0.42555   0.92338   1.000
    C219    C    0.74460   0.42555   0.92338   1.000
    C220    C    0.14563   0.36705   0.98857   1.000
    C221    C    0.64563   0.36705   0.98857   1.000
    C222    C    0.15487   0.50138   0.98829   1.000
    C223    C    0.65488   0.50139   0.98829   1.000
    C224    C    0.00634   0.48611   0.15038   1.000
    C225    C    0.50635   0.48611   0.15038   1.000
    C226    C    0.13879   0.50019   0.13905   1.000
    C227    C    0.63880   0.50019   0.13905   1.000
    C228    C    0.08054   0.37952   0.12639   1.000
    C229    C    0.58054   0.37952   0.12639   1.000
    C230    C    0.08941   0.43826   0.24470   1.000
    C231    C    0.58942   0.43826   0.24470   1.000
    C232    C    0.00281   0.65044   0.99833   1.000
    C233    C    0.50282   0.65043   0.99830   1.000
    C234    C    0.00656   0.63653   0.13255   1.000
    C235    C    0.50657   0.63653   0.13250   1.000
    C236    C    0.11786   0.62902   0.05882   1.000
    C237    C    0.61787   0.62902   0.05882   1.000
    C238    C    0.05806   0.74441   0.07729   1.000
    C239    C    0.55807   0.74441   0.07729   1.000
    C240    C    0.12341   0.87653   0.06167   1.000
    C241    C    0.62341   0.87653   0.06167   1.000
    C242    C    0.24449   0.92330   0.07449   1.000
    C243    C    0.74450   0.92330   0.07449   1.000
    C244    C    0.14570   0.98865   0.13309   1.000
    C245    C    0.64571   0.98865   0.13309   1.000
    C246    C    0.15488   0.98826   0.99869   1.000
    C247    C    0.65489   0.98826   0.99869   1.000
    C248    C    0.00661   0.15099   0.01267   1.000
    C249    C    0.50662   0.15099   0.01267   1.000
    C250    C    0.13903   0.13904   0.99975   1.000
    C251    C    0.63904   0.13904   0.99975   1.000
    C252    C    0.08023   0.12641   0.12000   1.000
    C253    C    0.58024   0.12641   0.12000   1.000
    C254    C    0.08968   0.24459   0.06180   1.000
    C255    C    0.58969   0.24459   0.06180   1.000
    C256    C    0.00277   0.99792   0.85153   1.000
    C257    C    0.50278   0.99792   0.85153   1.000
    C258    C    0.00635   0.13244   0.86180   1.000
    C259    C    0.50636   0.13244   0.86180   1.000
    C260    C    0.11782   0.05890   0.87127   1.000
    C261    C    0.61782   0.05890   0.87127   1.000
    C262    C    0.05813   0.07443   0.75555   1.000
    C263    C    0.55814   0.07443   0.75555   1.000
    C264    C    0.12340   0.62348   0.43831   1.000
    C265    C    0.62341   0.62348   0.43831   1.000
    C266    C    0.24448   0.57672   0.42552   1.000
    C267    C    0.74449   0.57672   0.42552   1.000
    C268    C    0.14571   0.51128   0.36700   1.000
    C269    C    0.64572   0.51128   0.36700   1.000
    C270    C    0.15489   0.51182   0.50141   1.000
    C271    C    0.65489   0.51182   0.50141   1.000
    C272    C    0.00661   0.34901   0.48733   1.000
    C273    C    0.50661   0.34901   0.48733   1.000
    C274    C    0.13902   0.36099   0.50020   1.000
    C275    C    0.63903   0.36099   0.50020   1.000
    C276    C    0.08021   0.37357   0.37990   1.000
    C277    C    0.58022   0.37357   0.37990   1.000
    C278    C    0.08968   0.25541   0.43822   1.000
    C279    C    0.58969   0.25541   0.43822   1.000
    C280    C    0.00277   0.50207   0.64846   1.000
    C281    C    0.50278   0.50207   0.64846   1.000
    C282    C    0.00636   0.36755   0.63819   1.000
    C283    C    0.50637   0.36755   0.63819   1.000
    C284    C    0.11782   0.44108   0.62877   1.000
    C285    C    0.61783   0.44108   0.62877   1.000
    C286    C    0.05810   0.42554   0.74446   1.000
    C287    C    0.55811   0.42554   0.74446   1.000
    O288    O    0.34682   0.89747   0.02547   1.000
    O289    O    0.39115   0.84796   0.97592   1.000
    O290    O    0.84683   0.89747   0.02547   1.000
    O291    O    0.89116   0.84796   0.97592   1.000
    O292    O    0.83890   0.97287   0.02611   1.000
    O293    O    0.83908   0.03345   0.96711   1.000
    O294    O    0.33889   0.97287   0.02611   1.000
    O295    O    0.33907   0.03345   0.96711   1.000
    O296    O    0.53775   0.34229   0.02312   1.000
    O297    O    0.47574   0.34238   0.96752   1.000
    O298    O    0.03775   0.34229   0.02312   1.000
    O299    O    0.97575   0.34238   0.96752   1.000
    O300    O    0.34365   0.59996   0.03325   1.000
    O301    O    0.38805   0.64899   0.98340   1.000
    O302    O    0.84366   0.59996   0.03325   1.000
    O303    O    0.88806   0.64899   0.98340   1.000
    O304    O    0.83904   0.53279   0.03339   1.000
    O305    O    0.83899   0.47378   0.97274   1.000
    O306    O    0.33903   0.53279   0.03339   1.000
    O307    O    0.33898   0.47378   0.97274   1.000
    O308    O    0.54266   0.15802   0.03040   1.000
    O309    O    0.48241   0.15825   0.97343   1.000
    O310    O    0.04265   0.15802   0.03040   1.000
    O311    O    0.98241   0.15825   0.97343   1.000
    O312    O    0.58399   0.28979   0.05320   1.000
    O313    O    0.57942   0.35726   0.08550   1.000
    O314    O    0.61197   0.35102   0.01658   1.000
    O315    O    0.08398   0.28979   0.05320   1.000
    O316    O    0.07941   0.35726   0.08550   1.000
    O317    O    0.11196   0.35102   0.01658   1.000
    O318    O    0.58419   0.20482   0.05497   1.000
    O319    O    0.57946   0.14573   0.08407   1.000
    O320    O    0.60887   0.15205   0.02394   1.000
    O321    O    0.08418   0.20482   0.05497   1.000
    O322    O    0.07946   0.14573   0.08407   1.000
    O323    O    0.10886   0.15205   0.02394   1.000
    O324    O    0.28857   0.92864   0.06271   1.000
    O325    O    0.35742   0.93755   0.08983   1.000
    O326    O    0.78858   0.92864   0.06271   1.000
    O327    O    0.85743   0.93755   0.08983   1.000
    O328    O    0.29417   0.57071   0.06585   1.000
    O329    O    0.35466   0.56423   0.08929   1.000
    O330    O    0.79418   0.57071   0.06585   1.000
    O331    O    0.85467   0.56423   0.08929   1.000
    O332    O    0.64253   0.59004   0.06246   1.000
    O333    O    0.58180   0.64692   0.06270   1.000
    O334    O    0.14252   0.59004   0.06246   1.000
    O335    O    0.08180   0.64692   0.06270   1.000
    O336    O    0.58262   0.85552   0.06370   1.000
    O337    O    0.64521   0.91070   0.06437   1.000
    O338    O    0.08261   0.85552   0.06370   1.000
    O339    O    0.14520   0.91070   0.06437   1.000
    O340    O    0.04993   0.78946   0.07151   1.000
    O341    O    0.01774   0.85104   0.10196   1.000
    O342    O    0.01761   0.84176   0.02652   1.000
    O343    O    0.54994   0.78946   0.07151   1.000
    O344    O    0.51774   0.85104   0.10196   1.000
    O345    O    0.51761   0.84176   0.02652   1.000
    O346    O    0.21130   0.56277   0.07135   1.000
    O347    O    0.15299   0.52563   0.10257   1.000
    O348    O    0.16103   0.52623   0.02719   1.000
    O349    O    0.71131   0.56277   0.07135   1.000
    O350    O    0.65300   0.52563   0.10257   1.000
    O351    O    0.66104   0.52623   0.02719   1.000
    O352    O    0.05189   0.70462   0.07194   1.000
    O353    O    0.02615   0.65068   0.09957   1.000
    O354    O    0.02427   0.65763   0.03246   1.000
    O355    O    0.55190   0.70462   0.07194   1.000
    O356    O    0.52615   0.65068   0.09955   1.000
    O357    O    0.52428   0.65763   0.03245   1.000
    O358    O    0.20574   0.93408   0.07078   1.000
    O359    O    0.15635   0.96676   0.10008   1.000
    O360    O    0.16094   0.96656   0.03288   1.000
    O361    O    0.70575   0.93408   0.07078   1.000
    O362    O    0.65635   0.96676   0.10008   1.000
    O363    O    0.66094   0.96656   0.03288   1.000
    O364    O    0.07922   0.08557   0.14235   1.000
    O365    O    0.57923   0.08557   0.14235   1.000
    O366    O    0.91724   0.56295   0.14441   1.000
    O367    O    0.41723   0.56295   0.14441   1.000
    O368    O    0.57961   0.41549   0.14568   1.000
    O369    O    0.07960   0.41549   0.14568   1.000
    O370    O    0.91827   0.93767   0.14667   1.000
    O371    O    0.41826   0.93767   0.14667   1.000
    O372    O    0.48231   0.60046   0.14891   1.000
    O373    O    0.98231   0.60046   0.14894   1.000
    O374    O    0.11196   0.01669   0.14889   1.000
    O375    O    0.61197   0.01669   0.14889   1.000
    O376    O    0.47399   0.90090   0.15141   1.000
    O377    O    0.97400   0.90090   0.15141   1.000
    O378    O    0.10873   0.47582   0.15201   1.000
    O379    O    0.60874   0.47582   0.15201   1.000
    O380    O    0.47578   0.96816   0.15654   1.000
    O381    O    0.53773   0.02341   0.15657   1.000
    O382    O    0.97579   0.96816   0.15654   1.000
    O383    O    0.03773   0.02341   0.15657   1.000
    O384    O    0.04250   0.46878   0.15767   1.000
    O385    O    0.98220   0.52525   0.15785   1.000
    O386    O    0.54251   0.46878   0.15767   1.000
    O387    O    0.48220   0.52525   0.15785   1.000
    O388    O    0.94811   0.92990   0.20451   1.000
    O389    O    0.44810   0.92990   0.20451   1.000
    O390    O    0.08382   0.05325   0.21000   1.000
    O391    O    0.58383   0.05325   0.21000   1.000
    O392    O    0.58404   0.44486   0.20483   1.000
    O393    O    0.08404   0.44486   0.20483   1.000
    O394    O    0.94999   0.56943   0.21043   1.000
    O395    O    0.44998   0.56943   0.21043   1.000
    O396    O    0.44997   0.93062   0.28951   1.000
    O397    O    0.94997   0.93062   0.28951   1.000
    O398    O    0.08381   0.44676   0.29000   1.000
    O399    O    0.58382   0.44676   0.29000   1.000
    O400    O    0.08403   0.05517   0.29516   1.000
    O401    O    0.58404   0.05517   0.29516   1.000
    O402    O    0.44812   0.57014   0.29543   1.000
    O403    O    0.94813   0.57014   0.29543   1.000
    O404    O    0.98218   0.97482   0.34210   1.000
    O405    O    0.98233   0.89960   0.35099   1.000
    O406    O    0.91724   0.93708   0.35556   1.000
    O407    O    0.48218   0.97482   0.34210   1.000
    O408    O    0.48233   0.89960   0.35099   1.000
    O409    O    0.41723   0.93708   0.35531   1.000
    O410    O    0.54248   0.03127   0.34230   1.000
    O411    O    0.60871   0.02420   0.34799   1.000
    O412    O    0.57960   0.08454   0.35431   1.000
    O413    O    0.04247   0.03127   0.34230   1.000
    O414    O    0.10870   0.02420   0.34799   1.000
    O415    O    0.07959   0.08454   0.35431   1.000
    O416    O    0.03773   0.47660   0.34341   1.000
    O417    O    0.11196   0.48327   0.35115   1.000
    O418    O    0.07921   0.41442   0.35760   1.000
    O419    O    0.53773   0.47660   0.34341   1.000
    O420    O    0.61197   0.48327   0.35115   1.000
    O421    O    0.57922   0.41442   0.35760   1.000
    O422    O    0.97579   0.53188   0.34343   1.000
    O423    O    0.97400   0.59914   0.34856   1.000
    O424    O    0.91826   0.56237   0.35328   1.000
    O425    O    0.47579   0.53188   0.34343   1.000
    O426    O    0.47399   0.59914   0.34856   1.000
    O427    O    0.41826   0.56237   0.35328   1.000
    O428    O    0.65297   0.97438   0.39742   1.000
    O429    O    0.15297   0.97438   0.39742   1.000
    O430    O    0.51773   0.64899   0.39802   1.000
    O431    O    0.01773   0.64899   0.39802   1.000
    O432    O    0.65636   0.53321   0.39995   1.000
    O433    O    0.15635   0.53321   0.39995   1.000
    O434    O    0.02616   0.84937   0.40035   1.000
    O435    O    0.52616   0.84937   0.40035   1.000
    O436    O    0.35742   0.56248   0.41012   1.000
    O437    O    0.85743   0.56248   0.41012   1.000
    O438    O    0.07942   0.14275   0.41451   1.000
    O439    O    0.57943   0.14275   0.41451   1.000
    O440    O    0.35466   0.93580   0.41044   1.000
    O441    O    0.85466   0.93580   0.41025   1.000
    O442    O    0.57946   0.35426   0.41588   1.000
    O443    O    0.07945   0.35426   0.41588   1.000
    O444    O    0.05187   0.79542   0.42801   1.000
    O445    O    0.04992   0.71057   0.42846   1.000
    O446    O    0.55188   0.79542   0.42801   1.000
    O447    O    0.54992   0.71057   0.42846   1.000
    O448    O    0.71130   0.93726   0.42861   1.000
    O449    O    0.79417   0.92934   0.43367   1.000
    O450    O    0.21129   0.93726   0.42861   1.000
    O451    O    0.29416   0.92934   0.43412   1.000
    O452    O    0.20574   0.56593   0.42921   1.000
    O453    O    0.28857   0.57137   0.43727   1.000
    O454    O    0.70574   0.56593   0.42921   1.000
    O455    O    0.78858   0.57137   0.43727   1.000
    O456    O    0.64520   0.58931   0.43561   1.000
    O457    O    0.66095   0.53348   0.46715   1.000
    O458    O    0.14519   0.58931   0.43561   1.000
    O459    O    0.16094   0.53348   0.46715   1.000
    O460    O    0.58180   0.85310   0.43722   1.000
    O461    O    0.52424   0.84243   0.46745   1.000
    O462    O    0.08179   0.85310   0.43722   1.000
    O463    O    0.02423   0.84243   0.46745   1.000
    O464    O    0.64252   0.90996   0.43750   1.000
    O465    O    0.66104   0.97375   0.47281   1.000
    O466    O    0.14252   0.90996   0.43750   1.000
    O467    O    0.16104   0.97374   0.47281   1.000
    O468    O    0.08260   0.64450   0.43628   1.000
    O469    O    0.01761   0.65826   0.47345   1.000
    O470    O    0.58261   0.64450   0.43628   1.000
    O471    O    0.51761   0.65826   0.47345   1.000
    O472    O    0.58419   0.29518   0.44504   1.000
    O473    O    0.58400   0.21020   0.44682   1.000
    O474    O    0.08418   0.29518   0.44504   1.000
    O475    O    0.08400   0.21020   0.44682   1.000
    O476    O    0.83901   0.96728   0.46612   1.000
    O477    O    0.84362   0.90011   0.46631   1.000
    O478    O    0.33901   0.96728   0.46656   1.000
    O479    O    0.34361   0.90011   0.46676   1.000
    O480    O    0.83890   0.52711   0.47376   1.000
    O481    O    0.84683   0.60253   0.47439   1.000
    O482    O    0.33889   0.52711   0.47376   1.000
    O483    O    0.34682   0.60253   0.47439   1.000
    O484    O    0.04264   0.34198   0.46959   1.000
    O485    O    0.10885   0.34797   0.47603   1.000
    O486    O    0.54265   0.34198   0.46959   1.000
    O487    O    0.60886   0.34797   0.47603   1.000
    O488    O    0.53779   0.15768   0.47693   1.000
    O489    O    0.61201   0.14894   0.48339   1.000
    O490    O    0.03779   0.15768   0.47693   1.000
    O491    O    0.11200   0.14894   0.48336   1.000
    O492    O    0.48241   0.34175   0.52653   1.000
    O493    O    0.98241   0.34175   0.52653   1.000
    O494    O    0.33898   0.02626   0.52717   1.000
    O495    O    0.83898   0.02626   0.52717   1.000
    O496    O    0.88802   0.85106   0.51660   1.000
    O497    O    0.38801   0.85106   0.51660   1.000
    O498    O    0.97579   0.15758   0.53254   1.000
    O499    O    0.47578   0.15758   0.53254   1.000
    O500    O    0.33907   0.46653   0.53275   1.000
    O501    O    0.83908   0.46653   0.53275   1.000
    O502    O    0.89117   0.65204   0.52393   1.000
    O503    O    0.39116   0.65204   0.52393   1.000
    O504    O    0.15319   0.39748   0.52558   1.000
    O505    O    0.65320   0.39748   0.52558   1.000
    O506    O    0.16112   0.47290   0.52618   1.000
    O507    O    0.66113   0.47290   0.52618   1.000
    O508    O    0.46223   0.84233   0.52306   1.000
    O509    O    0.96223   0.84233   0.52306   1.000
    O510    O    0.15640   0.09990   0.53319   1.000
    O511    O    0.65641   0.09990   0.53322   1.000
    O512    O    0.66101   0.03273   0.53341   1.000
    O513    O    0.16100   0.03273   0.53341   1.000
    O514    O    0.45737   0.65803   0.53039   1.000
    O515    O    0.95737   0.65803   0.53039   1.000
    O516    O    0.41601   0.78981   0.55313   1.000
    O517    O    0.42059   0.85726   0.58547   1.000
    O518    O    0.91602   0.78981   0.55313   1.000
    O519    O    0.92060   0.85726   0.58547   1.000
    O520    O    0.41583   0.70483   0.55491   1.000
    O521    O    0.42056   0.64575   0.58410   1.000
    O522    O    0.91583   0.70483   0.55491   1.000
    O523    O    0.92057   0.64575   0.58410   1.000
    O524    O    0.71145   0.42863   0.56272   1.000
    O525    O    0.64260   0.43753   0.58987   1.000
    O526    O    0.21144   0.42863   0.56272   1.000
    O527    O    0.14259   0.43753   0.58987   1.000
    O528    O    0.70586   0.07067   0.56587   1.000
    O529    O    0.64536   0.06421   0.58929   1.000
    O530    O    0.20585   0.07067   0.56587   1.000
    O531    O    0.14535   0.06421   0.58929   1.000
    O532    O    0.85750   0.09005   0.56247   1.000
    O533    O    0.91823   0.14691   0.56273   1.000
    O534    O    0.35749   0.09005   0.56247   1.000
    O535    O    0.41822   0.14691   0.56273   1.000
    O536    O    0.91742   0.35551   0.56370   1.000
    O537    O    0.85482   0.41070   0.56434   1.000
    O538    O    0.41741   0.35551   0.56370   1.000
    O539    O    0.35482   0.41070   0.56434   1.000
    O540    O    0.45009   0.28944   0.57152   1.000
    O541    O    0.48229   0.35102   0.60197   1.000
    O542    O    0.95010   0.28944   0.57152   1.000
    O543    O    0.98228   0.35102   0.60197   1.000
    O544    O    0.28872   0.06275   0.57137   1.000
    O545    O    0.34705   0.02553   0.60256   1.000
    O546    O    0.78872   0.06275   0.57137   1.000
    O547    O    0.84705   0.02553   0.60256   1.000
    O548    O    0.94815   0.20459   0.57198   1.000
    O549    O    0.97386   0.15063   0.59964   1.000
    O550    O    0.44814   0.20459   0.57198   1.000
    O551    O    0.47385   0.15063   0.59964   1.000
    O552    O    0.79428   0.43408   0.57074   1.000
    O553    O    0.84367   0.46680   0.59996   1.000
    O554    O    0.29428   0.43408   0.57074   1.000
    O555    O    0.34366   0.46680   0.59996   1.000
    O556    O    0.92081   0.58559   0.64238   1.000
    O557    O    0.42080   0.58559   0.64238   1.000
    O558    O    0.08278   0.06292   0.64442   1.000
    O559    O    0.58279   0.06292   0.64442   1.000
    O560    O    0.92043   0.91546   0.64567   1.000
    O561    O    0.42042   0.91546   0.64567   1.000
    O562    O    0.58176   0.43764   0.64671   1.000
    O563    O    0.08175   0.43764   0.64671   1.000
    O564    O    0.51769   0.10041   0.64899   1.000
    O565    O    0.01769   0.10041   0.64899   1.000
    O566    O    0.88806   0.51674   0.64879   1.000
    O567    O    0.38805   0.51674   0.64879   1.000
    O568    O    0.02602   0.40087   0.65142   1.000
    O569    O    0.52603   0.40087   0.65142   1.000
    O570    O    0.89132   0.97572   0.65199   1.000
    O571    O    0.39131   0.97572   0.65199   1.000
    O572    O    0.02422   0.46813   0.65655   1.000
    O573    O    0.96229   0.52341   0.65657   1.000
    O574    O    0.52423   0.46813   0.65655   1.000
    O575    O    0.46229   0.52341   0.65657   1.000
    O576    O    0.45754   0.96874   0.65768   1.000
    O577    O    0.51784   0.02519   0.65787   1.000
    O578    O    0.95754   0.96874   0.65768   1.000
    O579    O    0.01784   0.02519   0.65787   1.000
    O580    O    0.05189   0.42987   0.70455   1.000
    O581    O    0.55190   0.42987   0.70455   1.000
    O582    O    0.41620   0.55325   0.70999   1.000
    O583    O    0.91621   0.55325   0.70999   1.000
    O584    O    0.41598   0.94484   0.70483   1.000
    O585    O    0.91599   0.94484   0.70483   1.000
    O586    O    0.55005   0.06939   0.71045   1.000
    O587    O    0.05005   0.06939   0.71045   1.000
    O588    O    0.05003   0.43058   0.78956   1.000
    O589    O    0.55003   0.43058   0.78956   1.000
    O590    O    0.91620   0.94676   0.78998   1.000
    O591    O    0.41619   0.94676   0.78998   1.000
    O592    O    0.41597   0.55515   0.79515   1.000
    O593    O    0.91598   0.55515   0.79515   1.000
    O594    O    0.55191   0.07011   0.79543   1.000
    O595    O    0.05191   0.07011   0.79543   1.000
    O596    O    0.01781   0.47476   0.84213   1.000
    O597    O    0.01771   0.39955   0.85104   1.000
    O598    O    0.08278   0.43706   0.85557   1.000
    O599    O    0.51781   0.47475   0.84213   1.000
    O600    O    0.51771   0.39955   0.85104   1.000
    O601    O    0.58279   0.43706   0.85557   1.000
    O602    O    0.45751   0.53122   0.84231   1.000
    O603    O    0.39128   0.52419   0.84798   1.000
    O604    O    0.42041   0.58452   0.85430   1.000
    O605    O    0.95752   0.53122   0.84231   1.000
    O606    O    0.89129   0.52419   0.84798   1.000
    O607    O    0.92042   0.58452   0.85430   1.000
    O608    O    0.46229   0.97660   0.84340   1.000
    O609    O    0.38805   0.98332   0.85109   1.000
    O610    O    0.42079   0.91444   0.85759   1.000
    O611    O    0.96228   0.97660   0.84340   1.000
    O612    O    0.88806   0.98332   0.85109   1.000
    O613    O    0.92080   0.91444   0.85759   1.000
    O614    O    0.02423   0.03185   0.84341   1.000
    O615    O    0.02602   0.09911   0.84855   1.000
    O616    O    0.08175   0.06234   0.85329   1.000
    O617    O    0.52424   0.03185   0.84341   1.000
    O618    O    0.52603   0.09911   0.84855   1.000
    O619    O    0.58176   0.06234   0.85329   1.000
    O620    O    0.84703   0.47438   0.89737   1.000
    O621    O    0.34702   0.47438   0.89737   1.000
    O622    O    0.98228   0.14897   0.89800   1.000
    O623    O    0.48228   0.14897   0.89800   1.000
    O624    O    0.34366   0.03325   0.89991   1.000
    O625    O    0.84367   0.03325   0.89991   1.000
    O626    O    0.97387   0.34933   0.90041   1.000
    O627    O    0.47386   0.34933   0.90041   1.000
    O628    O    0.64260   0.06246   0.91016   1.000
    O629    O    0.14259   0.06246   0.91016   1.000
    O630    O    0.92061   0.64275   0.91449   1.000
    O631    O    0.42060   0.64275   0.91449   1.000
    O632    O    0.14535   0.43578   0.91069   1.000
    O633    O    0.64536   0.43578   0.91069   1.000
    O634    O    0.92056   0.85428   0.91587   1.000
    O635    O    0.42055   0.85428   0.91587   1.000
    O636    O    0.44812   0.29539   0.92805   1.000
    O637    O    0.45008   0.21055   0.92845   1.000
    O638    O    0.94812   0.29539   0.92805   1.000
    O639    O    0.95008   0.21055   0.92845   1.000
    O640    O    0.78872   0.43724   0.92859   1.000
    O641    O    0.70585   0.42930   0.93414   1.000
    O642    O    0.28871   0.43724   0.92859   1.000
    O643    O    0.20584   0.42930   0.93414   1.000
    O644    O    0.29427   0.06593   0.92920   1.000
    O645    O    0.21144   0.07137   0.93727   1.000
    O646    O    0.79428   0.06593   0.92920   1.000
    O647    O    0.71145   0.07137   0.93727   1.000
    O648    O    0.85482   0.08931   0.93562   1.000
    O649    O    0.35481   0.08931   0.93562   1.000
    O650    O    0.91822   0.35309   0.93725   1.000
    O651    O    0.41821   0.35309   0.93728   1.000
    O652    O    0.85750   0.40996   0.93745   1.000
    O653    O    0.35749   0.40996   0.93748   1.000
    O654    O    0.91741   0.14449   0.93626   1.000
    O655    O    0.41740   0.14449   0.93626   1.000
    O656    O    0.41583   0.79519   0.94502   1.000
    O657    O    0.41603   0.71022   0.94679   1.000
    O658    O    0.91583   0.79519   0.94502   1.000
    O659    O    0.91603   0.71022   0.94679   1.000
    O660    O    0.66099   0.46722   0.96659   1.000
    O661    O    0.65637   0.40005   0.96673   1.000
    O662    O    0.16098   0.46722   0.96659   1.000
    O663    O    0.15636   0.40005   0.96673   1.000
    O664    O    0.66113   0.02714   0.97387   1.000
    O665    O    0.65320   0.10253   0.97440   1.000
    O666    O    0.16112   0.02714   0.97387   1.000
    O667    O    0.15319   0.10253   0.97440   1.000
    O668    O    0.95737   0.84199   0.96959   1.000
    O669    O    0.45736   0.84199   0.96959   1.000
    O670    O    0.96227   0.65772   0.97686   1.000
    O671    O    0.46227   0.65772   0.97684   1.000
loop_
    _geom_bond_atom_site_label_1
    _geom_bond_atom_site_label_2
    _geom_bond_distance
    _geom_bond_site_symmetry_2
    _ccdc_geom_bond_type
    C154   O288      0.88035      .   S
    C16    O288      0.88035      .   S
    C154   O289      0.77081  1_554   S
    C62    O289      0.77081      .   S
    C155   O290      0.88035      .   S
    C17    O290      0.88035      .   S
    C155   O291      0.77081  1_554   S
    C63    O291      0.77081      .   S
    C151   O292      0.87659  1_545   S
    C17    O292      0.87659      .   S
    C151   O293      0.77091  1_554   S
    C61    O293      0.77091      .   S
    C150   O294      0.87659  1_545   S
    C16    O294      0.87659      .   S
    C150   O295      0.77091  1_554   S
    C60    O295      0.77091      .   S
    C136   O296      0.88099      .   S
    C33    O296      0.88099      .   S
    C136   O297      0.77282  1_554   S
    C58    O297      0.77282      .   S
    C137   O298      0.88086  1_655   S
    C32    O298      0.88086      .   S
    C137   O299      0.77282  1_554   S
    C59    O299      0.77282      .   S
    C124   O300      0.77255      .   S
    C54    O300      0.77255      .   S
    C124   O301      0.88234  1_554   S
    C8     O301      0.88234      .   S
    C125   O302      0.77255      .   S
    C55    O302      0.77255      .   S
    C125   O303      0.88234  1_554   S
    C9     O303      0.88234      .   S
    C127   O304      0.77101      .   S
    C55    O304      0.77101      .   S
    C127   O305      0.87746  1_554   S
    C11    O305      0.87746      .   S
    C126   O306      0.77101      .   S
    C54    O306      0.77101      .   S
    C126   O307      0.87747  1_554   S
    C10    O307      0.87747      .   S
    C249   O308      0.77339      .   S
    C87    O308      0.77339      .   S
    C249   O309      0.88073  1_554   S
    C12    O309      0.88073      .   S
    C248   O310      0.77339      .   S
    C86    O310      0.77339      .   S
    C248   O311      0.88065  1_454   S
    C13    O311      0.88065      .   S
    C33    O312      0.87332      .   S
    C255   O312      0.87332      .   S
    C33    O313      0.87680      .   S
    C229   O313      0.87680      .   S
    C33    O314      0.88239      .   S
    C221   O314      0.88239  1_556   S
    C32    O315      0.87332      .   S
    C254   O315      0.87332      .   S
    C32    O316      0.87680      .   S
    C228   O316      0.87680      .   S
    C32    O317      0.88239      .   S
    C220   O317      0.88239  1_556   S
    C87    O318      0.76706      .   S
    C255   O318      0.76706      .   S
    C87    O319      0.76807      .   S
    C253   O319      0.76807      .   S
    C87    O320      0.77214      .   S
    C251   O320      0.77214  1_556   S
    C86    O321      0.76706      .   S
    C254   O321      0.76706      .   S
    C86    O322      0.76807      .   S
    C252   O322      0.76807      .   S
    C86    O323      0.77214      .   S
    C250   O323      0.77214  1_556   S
    C16    O324      0.87249      .   S
    C242   O324      0.87249      .   S
    C16    O325      0.87299      .   S
    C164   O325      0.87299      .   S
    C17    O326      0.87249      .   S
    C243   O326      0.87249      .   S
    C17    O327      0.87299      .   S
    C165   O327      0.87299      .   S
    C54    O328      0.76705      .   S
    C122   O328      0.76705      .   S
    C54    O329      0.76671      .   S
    C120   O329      0.76671      .   S
    C55    O330      0.76705      .   S
    C123   O330      0.76705      .   S
    C55    O331      0.76671      .   S
    C121   O331      0.76671      .   S
    C237   O332      0.87358      .   S
    C35    O332      0.87358      .   S
    C237   O333      0.76736      .   S
    C83    O333      0.76736      .   S
    C236   O334      0.87358      .   S
    C34    O334      0.87358      .   S
    C236   O335      0.76736      .   S
    C82    O335      0.76736      .   S
    C241   O336      0.87139      .   S
    C37    O336      0.87139      .   S
    C241   O337      0.76696      .   S
    C85    O337      0.76696      .   S
    C240   O338      0.87139      .   S
    C36    O338      0.87139      .   S
    C240   O339      0.76696      .   S
    C84    O339      0.76696      .   S
    C36    O340      0.86915      .   S
    C238   O340      0.86915      .   S
    C36    O341      0.87825      .   S
    C163   O341      0.87825  1_655   S
    C36    O342      0.88018      .   S
    C153   O342      0.88018  1_656   S
    C37    O343      0.86915      .   S
    C239   O343      0.86915      .   S
    C37    O344      0.87832      .   S
    C162   O344      0.87832      .   S
    C37    O345      0.88025      .   S
    C152   O345      0.88025  1_556   S
    C34    O346      0.87260      .   S
    C122   O346      0.87260      .   S
    C34    O347      0.87958      .   S
    C226   O347      0.87958      .   S
    C34    O348      0.87684      .   S
    C222   O348      0.87684  1_556   S
    C35    O349      0.87261      .   S
    C123   O349      0.87261      .   S
    C35    O350      0.87958      .   S
    C227   O350      0.87958      .   S
    C35    O351      0.87684      .   S
    C223   O351      0.87684  1_556   S
    C82    O352      0.76523      .   S
    C238   O352      0.76523      .   S
    C82    O353      0.77127      .   S
    C234   O353      0.77127      .   S
    C82    O354      0.77290      .   S
    C232   O354      0.77290  1_556   S
    C83    O355      0.76523      .   S
    C239   O355      0.76523      .   S
    C83    O356      0.77089      .   S
    C235   O356      0.77089      .   S
    C83    O357      0.77314      .   S
    C233   O357      0.77314  1_556   S
    C84    O358      0.76710      .   S
    C242   O358      0.76710      .   S
    C84    O359      0.77265      .   S
    C244   O359      0.77265      .   S
    C84    O360      0.77090      .   S
    C246   O360      0.77090  1_556   S
    C85    O361      0.76710      .   S
    C243   O361      0.76710      .   S
    C85    O362      0.77265      .   S
    C245   O362      0.77265      .   S
    C85    O363      0.77090      .   S
    C247   O363      0.77090  1_556   S
    C252   O364      0.87682      .   S
    C38    O364      0.87682      .   S
    C253   O365      0.87682      .   S
    C39    O365      0.87682      .   S
    C121   O366      0.87055      .   S
    C7     O366      0.87055      .   S
    C120   O367      0.87055      .   S
    C6     O367      0.87055      .   S
    C229   O368      0.76878      .   S
    C81    O368      0.76878      .   S
    C228   O369      0.76878      .   S
    C80    O369      0.76878      .   S
    C165   O370      0.76698      .   S
    C65    O370      0.76698      .   S
    C164   O371      0.76698      .   S
    C64    O371      0.76698      .   S
    C235   O372      0.87713      .   S
    C6     O372      0.87713      .   S
    C234   O373      0.87689  1_455   S
    C7     O373      0.87689      .   S
    C244   O374      0.88239  1_565   S
    C38    O374      0.88239      .   S
    C245   O375      0.88239  1_565   S
    C39    O375      0.88239      .   S
    C162   O376      0.77173      .   S
    C64    O376      0.77173      .   S
    C163   O377      0.77173      .   S
    C65    O377      0.77173      .   S
    C226   O378      0.77238      .   S
    C80    O378      0.77238      .   S
    C227   O379      0.77238      .   S
    C81    O379      0.77238      .   S
    C160   O380      0.77320  1_545   S
    C64    O380      0.77320      .   S
    C160   O381      0.88146      .   S
    C39    O381      0.88146      .   S
    C161   O382      0.77320  1_545   S
    C65    O382      0.77320      .   S
    C161   O383      0.88133  1_655   S
    C38    O383      0.88133      .   S
    C224   O384      0.77305      .   S
    C80    O384      0.77305      .   S
    C224   O385      0.87961  1_455   S
    C7     O385      0.87961      .   S
    C225   O386      0.77305      .   S
    C81    O386      0.77305      .   S
    C225   O387      0.87970      .   S
    C6     O387      0.87970      .   S
    C65    O388      0.76432      .   S
    C167   O388      0.76432      .   S
    C64    O389      0.76432      .   S
    C166   O389      0.76432      .   S
    C38    O390      0.87411      .   S
    C206   O390      0.87411      .   S
    C39    O391      0.87411      .   S
    C207   O391      0.87411      .   S
    C81    O392      0.76738      .   S
    C231   O392      0.76738      .   S
    C80    O393      0.76738      .   S
    C230   O393      0.76738      .   S
    C7     O394      0.86783      .   S
    C191   O394      0.86783      .   S
    C6     O395      0.86783      .   S
    C190   O395      0.86783      .   S
    C166   O396      0.86816      .   S
    C0     O396      0.86816      .   S
    C167   O397      0.86816      .   S
    C1     O397      0.86816      .   S
    C230   O398      0.87406      .   S
    C44    O398      0.87406      .   S
    C231   O399      0.87406      .   S
    C45    O399      0.87406      .   S
    C206   O400      0.76730      .   S
    C74    O400      0.76730      .   S
    C207   O401      0.76730      .   S
    C75    O401      0.76730      .   S
    C190   O402      0.76456      .   S
    C70    O402      0.76456      .   S
    C191   O403      0.76456      .   S
    C71    O403      0.76456      .   S
    C1     O404      0.87960      .   S
    C200   O404      0.87960  1_445   S
    C1     O405      0.87693      .   S
    C210   O405      0.87693  1_455   S
    C1     O406      0.87054      .   S
    C97    O406      0.87054      .   S
    C0     O407      0.87968      .   S
    C201   O407      0.87968  1_545   S
    C0     O408      0.87701      .   S
    C211   O408      0.87701      .   S
    C0     O409      0.86842      .   S
    C96    O409      0.86842      .   S
    C75    O410      0.77306      .   S
    C201   O410      0.77306      .   S
    C75    O411      0.77241      .   S
    C203   O411      0.77241  1_565   S
    C75    O412      0.76875      .   S
    C205   O412      0.76875      .   S
    C74    O413      0.77306      .   S
    C200   O413      0.77306      .   S
    C74    O414      0.77241      .   S
    C202   O414      0.77241  1_565   S
    C74    O415      0.76875      .   S
    C204   O415      0.76875      .   S
    C44    O416      0.88133      .   S
    C185   O416      0.88133  1_655   S
    C44    O417      0.88248      .   S
    C268   O417      0.88248      .   S
    C44    O418      0.87645      .   S
    C276   O418      0.87645      .   S
    C45    O419      0.88146      .   S
    C184   O419      0.88146      .   S
    C45    O420      0.88248      .   S
    C269   O420      0.88248      .   S
    C45    O421      0.87645      .   S
    C277   O421      0.87645      .   S
    C71    O422      0.77329      .   S
    C185   O422      0.77329      .   S
    C71    O423      0.77173      .   S
    C187   O423      0.77173      .   S
    C71    O424      0.76702      .   S
    C189   O424      0.76702      .   S
    C70    O425      0.77329      .   S
    C184   O425      0.77329      .   S
    C70    O426      0.77173      .   S
    C186   O426      0.77173      .   S
    C70    O427      0.76702      .   S
    C188   O427      0.76702      .   S
    C203   O428      0.87951      .   S
    C29    O428      0.87951      .   S
    C202   O429      0.87951      .   S
    C28    O429      0.87951      .   S
    C186   O430      0.87832      .   S
    C43    O430      0.87832      .   S
    C187   O431      0.87825  1_655   S
    C42    O431      0.87825      .   S
    C269   O432      0.77209      .   S
    C91    O432      0.77209      .   S
    C268   O433      0.77209      .   S
    C90    O433      0.77209      .   S
    C210   O434      0.77125      .   S
    C76    O434      0.77125      .   S
    C211   O435      0.77125      .   S
    C77    O435      0.77125      .   S
    C188   O436      0.87298      .   S
    C22    O436      0.87298      .   S
    C189   O437      0.87298      .   S
    C23    O437      0.87298      .   S
    C204   O438      0.87687      .   S
    C26    O438      0.87687      .   S
    C205   O439      0.87687      .   S
    C27    O439      0.87687      .   S
    C96    O440      0.77065      .   S
    C48    O440      0.77065      .   S
    C97    O441      0.75968      .   S
    C49    O441      0.75968      .   S
    C277   O442      0.76881      .   S
    C93    O442      0.76881      .   S
    C276   O443      0.76881      .   S
    C92    O443      0.76881      .   S
    C214   O444      0.76523      .   S
    C76    O444      0.76523      .   S
    C214   O445      0.86915      .   S
    C42    O445      0.86915      .   S
    C215   O446      0.76522      .   S
    C77    O446      0.76522      .   S
    C215   O447      0.86916      .   S
    C43    O447      0.86916      .   S
    C99    O448      0.87258      .   S
    C29    O448      0.87258      .   S
    C99    O449      0.76486      .   S
    C49    O449      0.76486      .   S
    C98    O450      0.87258      .   S
    C28    O450      0.87258      .   S
    C98    O451      0.76703      .   S
    C48    O451      0.76703      .   S
    C266   O452      0.76705      .   S
    C90    O452      0.76705      .   S
    C266   O453      0.87247      .   S
    C22    O453      0.87247      .   S
    C267   O454      0.76705      .   S
    C91    O454      0.76705      .   S
    C267   O455      0.87247      .   S
    C23    O455      0.87247      .   S
    C91    O456      0.76702      .   S
    C265   O456      0.76702      .   S
    C91    O457      0.77154      .   S
    C271   O457      0.77154      .   S
    C90    O458      0.76702      .   S
    C264   O458      0.76702      .   S
    C90    O459      0.77155      .   S
    C270   O459      0.77155      .   S
    C77    O460      0.76731      .   S
    C213   O460      0.76731      .   S
    C77    O461      0.77285      .   S
    C209   O461      0.77285      .   S
    C76    O462      0.76731      .   S
    C212   O462      0.76731      .   S
    C76    O463      0.77285      .   S
    C208   O463      0.77285      .   S
    C29    O464      0.87355      .   S
    C213   O464      0.87355      .   S
    C29    O465      0.87674      .   S
    C199   O465      0.87674      .   S
    C28    O466      0.87355      .   S
    C212   O466      0.87355      .   S
    C28    O467      0.87674      .   S
    C198   O467      0.87674      .   S
    C42    O468      0.87138      .   S
    C264   O468      0.87138      .   S
    C42    O469      0.88018      .   S
    C177   O469      0.88018  1_655   S
    C43    O470      0.87138      .   S
    C265   O470      0.87138      .   S
    C43    O471      0.88026      .   S
    C176   O471      0.88026      .   S
    C279   O472      0.76706      .   S
    C93    O472      0.76706      .   S
    C279   O473      0.87335      .   S
    C27    O473      0.87335      .   S
    C278   O474      0.76706      .   S
    C92    O474      0.76706      .   S
    C278   O475      0.87335      .   S
    C26    O475      0.87335      .   S
    C49    O476      0.77540      .   S
    C103   O476      0.77540  1_545   S
    C49    O477      0.77706      .   S
    C101   O477      0.77706      .   S
    C48    O478      0.77094      .   S
    C102   O478      0.77094  1_545   S
    C48    O479      0.77257      .   S
    C100   O479      0.77257      .   S
    C23    O480      0.87638      .   S
    C175   O480      0.87638      .   S
    C23    O481      0.87916      .   S
    C179   O481      0.87916      .   S
    C22    O482      0.87638      .   S
    C174   O482      0.87638      .   S
    C22    O483      0.87916      .   S
    C178   O483      0.87916      .   S
    C92    O484      0.77340      .   S
    C272   O484      0.77340      .   S
    C92    O485      0.77193      .   S
    C274   O485      0.77193      .   S
    C93    O486      0.77340      .   S
    C273   O486      0.77340      .   S
    C93    O487      0.77193      .   S
    C275   O487      0.77193      .   S
    C27    O488      0.88099      .   S
    C112   O488      0.88099      .   S
    C27    O489      0.88230      .   S
    C197   O489      0.88230      .   S
    C26    O490      0.88085      .   S
    C113   O490      0.88085  1_655   S
    C26    O491      0.88197      .   S
    C196   O491      0.88197      .   S
    C273   O492      0.88027      .   S
    C18    O492      0.88027      .   S
    C272   O493      0.88019  1_455   S
    C19    O493      0.88019      .   S
    C102   O494      0.87682      .   S
    C4     O494      0.87682      .   S
    C103   O495      0.87682      .   S
    C5     O495      0.87682      .   S
    C101   O496      0.88231      .   S
    C3     O496      0.88231      .   S
    C100   O497      0.88231      .   S
    C2     O497      0.88231      .   S
    C113   O498      0.77277      .   S
    C53    O498      0.77277      .   S
    C112   O499      0.77277      .   S
    C52    O499      0.77277      .   S
    C174   O500      0.77155      .   S
    C66    O500      0.77155      .   S
    C175   O501      0.77155      .   S
    C67    O501      0.77155      .   S
    C179   O502      0.77210      .   S
    C69    O502      0.77210      .   S
    C178   O503      0.77210      .   S
    C68    O503      0.77210      .   S
    C274   O504      0.87931      .   S
    C46    O504      0.87931      .   S
    C275   O505      0.87931      .   S
    C47    O505      0.87931      .   S
    C270   O506      0.87673      .   S
    C46    O506      0.87673      .   S
    C271   O507      0.87674      .   S
    C47    O507      0.87674      .   S
    C209   O508      0.88099      .   S
    C2     O508      0.88099      .   S
    C208   O509      0.88086  1_455   S
    C3     O509      0.88086      .   S
    C196   O510      0.77282      .   S
    C72    O510      0.77282      .   S
    C197   O511      0.77253      .   S
    C73    O511      0.77253      .   S
    C199   O512      0.77093  1_565   S
    C73    O512      0.77093      .   S
    C198   O513      0.77094  1_565   S
    C72    O513      0.77094      .   S
    C176   O514      0.77336      .   S
    C68    O514      0.77336      .   S
    C177   O515      0.77336      .   S
    C69    O515      0.77336      .   S
    C2     O516      0.87323      .   S
    C182   O516      0.87323      .   S
    C2     O517      0.87678      .   S
    C108   O517      0.87678      .   S
    C3     O518      0.87323      .   S
    C183   O518      0.87323      .   S
    C3     O519      0.87678      .   S
    C109   O519      0.87678      .   S
    C68    O520      0.76697      .   S
    C182   O520      0.76697      .   S
    C68    O521      0.76881      .   S
    C180   O521      0.76881      .   S
    C69    O522      0.76697      .   S
    C183   O522      0.76697      .   S
    C69    O523      0.76881      .   S
    C181   O523      0.76881      .   S
    C47    O524      0.87250      .   S
    C171   O524      0.87250      .   S
    C47    O525      0.87306      .   S
    C285   O525      0.87306      .   S
    C46    O526      0.87250      .   S
    C170   O526      0.87250      .   S
    C46    O527      0.87306      .   S
    C284   O527      0.87306      .   S
    C73    O528      0.76705      .   S
    C195   O528      0.76705      .   S
    C73    O529      0.76677      .   S
    C193   O529      0.76677      .   S
    C72    O530      0.76705      .   S
    C194   O530      0.76705      .   S
    C72    O531      0.76677      .   S
    C192   O531      0.76677      .   S
    C117   O532      0.87360      .   S
    C5     O532      0.87360      .   S
    C117   O533      0.76736      .   S
    C53    O533      0.76736      .   S
    C116   O534      0.87359      .   S
    C4     O534      0.87359      .   S
    C116   O535      0.76736      .   S
    C52    O535      0.76736      .   S
    C169   O536      0.87138      .   S
    C19    O536      0.87138      .   S
    C169   O537      0.76698      .   S
    C67    O537      0.76698      .   S
    C168   O538      0.87138      .   S
    C18    O538      0.87138      .   S
    C168   O539      0.76698      .   S
    C66    O539      0.76698      .   S
    C18    O540      0.86915      .   S
    C118   O540      0.86915      .   S
    C18    O541      0.87826      .   S
    C283   O541      0.87826      .   S
    C19    O542      0.86915      .   S
    C119   O542      0.86915      .   S
    C19    O543      0.87818      .   S
    C282   O543      0.87818  1_455   S
    C4     O544      0.87259      .   S
    C194   O544      0.87259      .   S
    C4     O545      0.88036      .   S
    C106   O545      0.88036      .   S
    C5     O546      0.87259      .   S
    C195   O546      0.87259      .   S
    C5     O547      0.88036      .   S
    C107   O547      0.88036      .   S
    C53    O548      0.76523      .   S
    C119   O548      0.76523      .   S
    C53    O549      0.77133      .   S
    C115   O549      0.77133      .   S
    C52    O550      0.76523      .   S
    C118   O550      0.76523      .   S
    C52    O551      0.77133      .   S
    C114   O551      0.77133      .   S
    C67    O552      0.76711      .   S
    C171   O552      0.76711      .   S
    C67    O553      0.77202      .   S
    C173   O553      0.77202      .   S
    C66    O554      0.76711      .   S
    C170   O554      0.76711      .   S
    C66    O555      0.77202      .   S
    C172   O555      0.77202      .   S
    C181   O556      0.87646      .   S
    C21    O556      0.87646      .   S
    C180   O557      0.87646      .   S
    C20    O557      0.87646      .   S
    C192   O558      0.87049      .   S
    C24    O558      0.87049      .   S
    C193   O559      0.87050      .   S
    C25    O559      0.87050      .   S
    C109   O560      0.76880      .   S
    C51    O560      0.76880      .   S
    C108   O561      0.76880      .   S
    C50    O561      0.76880      .   S
    C285   O562      0.76698      .   S
    C95    O562      0.76698      .   S
    C284   O563      0.76698      .   S
    C94    O563      0.76698      .   S
    C114   O564      0.87698      .   S
    C25    O564      0.87698      .   S
    C115   O565      0.87690  1_655   S
    C24    O565      0.87690      .   S
    C173   O566      0.88273      .   S
    C21    O566      0.88273      .   S
    C172   O567      0.88273      .   S
    C20    O567      0.88273      .   S
    C282   O568      0.77173      .   S
    C94    O568      0.77173      .   S
    C283   O569      0.77173      .   S
    C95    O569      0.77173      .   S
    C107   O570      0.77142  1_545   S
    C51    O570      0.77142      .   S
    C106   O571      0.77142  1_545   S
    C50    O571      0.77142      .   S
    C280   O572      0.77326      .   S
    C94    O572      0.77326      .   S
    C280   O573      0.88132  1_455   S
    C21    O573      0.88132      .   S
    C281   O574      0.77326      .   S
    C95    O574      0.77326      .   S
    C281   O575      0.88145      .   S
    C20    O575      0.88145      .   S
    C104   O576      0.77307      .   S
    C50    O576      0.77307      .   S
    C104   O577      0.87967  1_565   S
    C25    O577      0.87967      .   S
    C105   O578      0.77307      .   S
    C51    O578      0.77307      .   S
    C105   O579      0.87960  1_665   S
    C24    O579      0.87960      .   S
    C94    O580      0.76465      .   S
    C286   O580      0.76465      .   S
    C95    O581      0.76465      .   S
    C287   O581      0.76465      .   S
    C20    O582      0.87415      .   S
    C134   O582      0.87415      .   S
    C21    O583      0.87416      .   S
    C135   O583      0.87416      .   S
    C50    O584      0.76730      .   S
    C110   O584      0.76730      .   S
    C51    O585      0.76730      .   S
    C111   O585      0.76730      .   S
    C25    O586      0.86788      .   S
    C263   O586      0.86788      .   S
    C24    O587      0.86788      .   S
    C262   O587      0.86788      .   S
    C286   O588      0.86783      .   S
    C30    O588      0.86783      .   S
    C287   O589      0.86783      .   S
    C31    O589      0.86783      .   S
    C111   O590      0.87402      .   S
    C15    O590      0.87402      .   S
    C110   O591      0.87402      .   S
    C14    O591      0.87402      .   S
    C134   O592      0.76729      .   S
    C56    O592      0.76729      .   S
    C135   O593      0.76729      .   S
    C57    O593      0.76729      .   S
    C263   O594      0.76413      .   S
    C89    O594      0.76413      .   S
    C262   O595      0.76413      .   S
    C88    O595      0.76413      .   S
    C30    O596      0.87961      .   S
    C129   O596      0.87961  1_655   S
    C30    O597      0.87686      .   S
    C139   O597      0.87686  1_655   S
    C30    O598      0.87051      .   S
    C216   O598      0.87051      .   S
    C31    O599      0.87969      .   S
    C128   O599      0.87969      .   S
    C31    O600      0.87693      .   S
    C138   O600      0.87693      .   S
    C31    O601      0.87051      .   S
    C217   O601      0.87051      .   S
    C56    O602      0.77307      .   S
    C128   O602      0.77307      .   S
    C56    O603      0.77240      .   S
    C130   O603      0.77240      .   S
    C56    O604      0.76882      .   S
    C132   O604      0.76882      .   S
    C57    O605      0.77307      .   S
    C129   O605      0.77307      .   S
    C57    O606      0.77240      .   S
    C131   O606      0.77240      .   S
    C57    O607      0.76882      .   S
    C133   O607      0.76882      .   S
    C14    O608      0.88146      .   S
    C257   O608      0.88146      .   S
    C14    O609      0.88242      .   S
    C148   O609      0.88242  1_545   S
    C14    O610      0.87647      .   S
    C156   O610      0.87647      .   S
    C15    O611      0.88133      .   S
    C256   O611      0.88133  1_455   S
    C15    O612      0.88242      .   S
    C149   O612      0.88242  1_545   S
    C15    O613      0.87647      .   S
    C157   O613      0.87647      .   S
    C88    O614      0.77328      .   S
    C256   O614      0.77328  1_565   S
    C88    O615      0.77191      .   S
    C258   O615      0.77191      .   S
    C88    O616      0.76723      .   S
    C260   O616      0.76723      .   S
    C89    O617      0.77328      .   S
    C257   O617      0.77328  1_565   S
    C89    O618      0.77191      .   S
    C259   O618      0.77191      .   S
    C89    O619      0.76723      .   S
    C261   O619      0.76723      .   S
    C131   O620      0.87891      .   S
    C11    O620      0.87891      .   S
    C130   O621      0.87892      .   S
    C10    O621      0.87892      .   S
    C258   O622      0.87781  1_455   S
    C13    O622      0.87781      .   S
    C259   O623      0.87789      .   S
    C12    O623      0.87789      .   S
    C148   O624      0.77266      .   S
    C60    O624      0.77266      .   S
    C149   O625      0.77266      .   S
    C61    O625      0.77266      .   S
    C139   O626      0.77134      .   S
    C59    O626      0.77134      .   S
    C138   O627      0.77134      .   S
    C58    O627      0.77134      .   S
    C261   O628      0.87291      .   S
    C41    O628      0.87291      .   S
    C260   O629      0.87291      .   S
    C40    O629      0.87291      .   S
    C133   O630      0.87680      .   S
    C9     O630      0.87680      .   S
    C132   O631      0.87680      .   S
    C8     O631      0.87680      .   S
    C216   O632      0.76680      .   S
    C78    O632      0.76680      .   S
    C217   O633      0.76680      .   S
    C79    O633      0.76680      .   S
    C157   O634      0.76882      .   S
    C63    O634      0.76882      .   S
    C156   O635      0.76882      .   S
    C62    O635      0.76882      .   S
    C142   O636      0.76522      .   S
    C58    O636      0.76522      .   S
    C142   O637      0.86908      .   S
    C12    O637      0.86908      .   S
    C143   O638      0.76522      .   S
    C59    O638      0.76522      .   S
    C143   O639      0.86908      .   S
    C13    O639      0.86908      .   S
    C219   O640      0.87250      .   S
    C11    O640      0.87250      .   S
    C219   O641      0.76705      .   S
    C79    O641      0.76705      .   S
    C218   O642      0.87250      .   S
    C10    O642      0.87250      .   S
    C218   O643      0.76705      .   S
    C78    O643      0.76705      .   S
    C146   O644      0.76711      .   S
    C60    O644      0.76711      .   S
    C146   O645      0.87248      .   S
    C40    O645      0.87248      .   S
    C147   O646      0.76711      .   S
    C61    O646      0.76711      .   S
    C147   O647      0.87248      .   S
    C41    O647      0.87248      .   S
    C61    O648      0.76696      .   S
    C145   O648      0.76696      .   S
    C60    O649      0.76696      .   S
    C144   O649      0.76696      .   S
    C59    O650      0.76729      .   S
    C141   O650      0.76729      .   S
    C58    O651      0.76734      .   S
    C140   O651      0.76734      .   S
    C11    O652      0.87360      .   S
    C141   O652      0.87360      .   S
    C10    O653      0.87364      .   S
    C140   O653      0.87364      .   S
    C13    O654      0.87140      .   S
    C145   O654      0.87140      .   S
    C12    O655      0.87140      .   S
    C144   O655      0.87140      .   S
    C158   O656      0.76705      .   S
    C62    O656      0.76705      .   S
    C158   O657      0.87332      .   S
    C8     O657      0.87332      .   S
    C159   O658      0.76705      .   S
    C63    O658      0.76705      .   S
    C159   O659      0.87332      .   S
    C9     O659      0.87332      .   S
    C79    O660      0.77096      .   S
    C223   O660      0.77096      .   S
    C79    O661      0.77250      .   S
    C221   O661      0.77250      .   S
    C78    O662      0.77095      .   S
    C222   O662      0.77095      .   S
    C78    O663      0.77250      .   S
    C220   O663      0.77250      .   S
    C41    O664      0.87665      .   S
    C247   O664      0.87665  1_565   S
    C41    O665      0.87916      .   S
    C251   O665      0.87916      .   S
    C40    O666      0.87665      .   S
    C246   O666      0.87665  1_565   S
    C40    O667      0.87916      .   S
    C250   O667      0.87916      .   S
    C63    O668      0.77339      .   S
    C153   O668      0.77339      .   S
    C62    O669      0.77339      .   S
    C152   O669      0.77339      .   S
    C9     O670      0.88082      .   S
    C232   O670      0.88082  1_455   S
    C8     O671      0.88082      .   S
    C233   O671      0.88082      .   S
