# CIF file generated by openbabel 2.4.90, see http://openbabel.sf.net
data_I
_chemical_name_common ''
_cell_length_a 16.334
_cell_length_b 16.343
_cell_length_c 16.344
_cell_angle_alpha 92.276
_cell_angle_beta 92.425
_cell_angle_gamma 92.394
_space_group_name_H-M_alt 'P 1'
_space_group_name_Hall 'P 1'
loop_
    _symmetry_equiv_pos_as_xyz
    x,y,z
loop_
    _atom_site_label
    _atom_site_type_symbol
    _atom_site_fract_x
    _atom_site_fract_y
    _atom_site_fract_z
    _atom_site_occupancy
    H0      H    0.50014   0.02845   0.38736   1.000
    H1      H    0.35795   0.97748   0.34262   1.000
    H2      H    0.27517   0.22389   0.36344   1.000
    H3      H    0.41604   0.27383   0.41150   1.000
    H4      H    0.96589   0.12250   0.28367   1.000
    H5      H    0.09991   0.07215   0.23550   1.000
    H6      H    0.21169   0.13057   0.47517   1.000
    H7      H    0.07944   0.18293   0.52134   1.000
    H8      H    0.66483   0.22903   0.17285   1.000
    H9      H    0.62226   0.27246   0.03322   1.000
    H10     H    0.59288   0.51738   0.13137   1.000
    H11     H    0.63107   0.47299   0.27129   1.000
    H12     H    0.38809   0.50076   0.03101   1.000
    H13     H    0.34359   0.35909   0.97905   1.000
    H14     H    0.36365   0.27434   0.22493   1.000
    H15     H    0.41145   0.41475   0.27594   1.000
    H16     H    0.28144   0.96635   0.12160   1.000
    H17     H    0.23472   0.10105   0.07150   1.000
    H18     H    0.47517   0.21037   0.13209   1.000
    H19     H    0.51992   0.07743   0.18410   1.000
    H20     H    0.17278   0.66333   0.23087   1.000
    H21     H    0.03310   0.61950   0.27316   1.000
    H22     H    0.13007   0.59158   0.51906   1.000
    H23     H    0.27011   0.63092   0.47584   1.000
    H24     H    0.02887   0.38658   0.50164   1.000
    H25     H    0.97776   0.34239   0.35952   1.000
    H26     H    0.22424   0.36415   0.27672   1.000
    H27     H    0.27432   0.41188   0.41740   1.000
    H28     H    0.12158   0.28126   0.96806   1.000
    H29     H    0.07120   0.23436   0.10250   1.000
    H30     H    0.13146   0.47455   0.21190   1.000
    H31     H    0.18381   0.51944   0.07910   1.000
    H32     H    0.22874   0.17252   0.66357   1.000
    H33     H    0.27045   0.03275   0.61979   1.000
    H34     H    0.51675   0.12865   0.59192   1.000
    H35     H    0.47413   0.26884   0.63132   1.000
    H36     H    0.97118   0.49783   0.61328   1.000
    H37     H    0.02223   0.63997   0.65742   1.000
    H38     H    0.77567   0.72274   0.63575   1.000
    H39     H    0.72565   0.58194   0.58807   1.000
    H40     H    0.87861   0.03150   0.71866   1.000
    H41     H    0.92887   0.89689   0.76554   1.000
    H42     H    0.86825   0.78760   0.52530   1.000
    H43     H    0.81600   0.92046   0.48050   1.000
    H44     H    0.77073   0.33628   0.82687   1.000
    H45     H    0.72948   0.38002   0.96679   1.000
    H46     H    0.48291   0.40806   0.87158   1.000
    H47     H    0.52506   0.36870   0.73123   1.000
    H48     H    0.49967   0.61243   0.97129   1.000
    H49     H    0.64179   0.65718   0.02229   1.000
    H50     H    0.72460   0.63641   0.77597   1.000
    H51     H    0.58379   0.58825   0.72596   1.000
    H52     H    0.03382   0.71630   0.87751   1.000
    H53     H    0.89978   0.76446   0.92782   1.000
    H54     H    0.78817   0.52474   0.86940   1.000
    H55     H    0.92044   0.47861   0.81707   1.000
    H56     H    0.33521   0.82718   0.77094   1.000
    H57     H    0.37783   0.96677   0.72747   1.000
    H58     H    0.40736   0.86845   0.48266   1.000
    H59     H    0.36908   0.72860   0.52707   1.000
    H60     H    0.61294   0.96921   0.49973   1.000
    H61     H    0.65677   0.02114   0.64161   1.000
    H62     H    0.63635   0.77518   0.72615   1.000
    H63     H    0.58899   0.72425   0.58556   1.000
    H64     H    0.71781   0.87773   0.03418   1.000
    H65     H    0.76486   0.92826   0.89983   1.000
    H66     H    0.52462   0.86816   0.78970   1.000
    H67     H    0.47957   0.81558   0.92236   1.000
    H68     H    0.82722   0.76912   0.33642   1.000
    H69     H    0.96689   0.72681   0.38040   1.000
    H70     H    0.86994   0.48096   0.40844   1.000
    H71     H    0.72989   0.52423   0.36900   1.000
    C72     C    0.46675   0.15441   0.40280   1.000
    C73     C    0.45068   0.07086   0.38257   1.000
    C74     C    0.37188   0.04223   0.35760   1.000
    C75     C    0.30909   0.09747   0.35139   1.000
    C76     C    0.32450   0.18142   0.36924   1.000
    C77     C    0.40297   0.20913   0.39575   1.000
    C78     C    0.01467   0.15604   0.40531   1.000
    C79     C    0.02025   0.12438   0.32476   1.000
    C80     C    0.09414   0.09647   0.29792   1.000
    C81     C    0.16277   0.09916   0.35220   1.000
    C82     C    0.15813   0.12962   0.43312   1.000
    C83     C    0.08430   0.15852   0.45887   1.000
    C84     C    0.65133   0.34788   0.23118   1.000
    C85     C    0.64899   0.29212   0.16328   1.000
    C86     C    0.62564   0.31632   0.08533   1.000
    C87     C    0.60581   0.39791   0.07466   1.000
    C88     C    0.54193   0.84038   0.91707   1.000
    C89     C    0.76944   0.64975   0.34931   1.000
    C90     C    0.83706   0.70608   0.35232   1.000
    C91     C    0.60875   0.45441   0.14142   1.000
    C92     C    0.63050   0.42923   0.21931   1.000
    C93     C    0.40313   0.46647   0.15685   1.000
    C94     C    0.38322   0.45100   0.07312   1.000
    C95     C    0.35837   0.37245   0.04390   1.000
    C96     C    0.35191   0.30920   0.09868   1.000
    C97     C    0.36956   0.32397   0.18277   1.000
    C98     C    0.39595   0.40222   0.21109   1.000
    C99     C    0.40343   0.01379   0.15629   1.000
    C100    C    0.32306   0.02030   0.12408   1.000
    C101    C    0.29699   0.09460   0.09628   1.000
    C102    C    0.35186   0.16277   0.09963   1.000
    C103    C    0.43261   0.15720   0.13064   1.000
    C104    C    0.45758   0.08296   0.15939   1.000
    C105    C    0.23056   0.65050   0.35029   1.000
    C106    C    0.16294   0.64749   0.29392   1.000
    C107    C    0.08498   0.62344   0.31746   1.000
    C108    C    0.07397   0.60363   0.39901   1.000
    C109    C    0.14038   0.60737   0.45612   1.000
    C110    C    0.21835   0.62978   0.43160   1.000
    C111    C    0.15490   0.40249   0.46829   1.000
    C112    C    0.07127   0.38219   0.45219   1.000
    C113    C    0.04257   0.35750   0.37340   1.000
    C114    C    0.09778   0.35151   0.31068   1.000
    O115    O    0.68810   0.93751   0.26426   1.000
    C116    C    0.18177   0.36967   0.32603   1.000
    C117    C    0.20957   0.39599   0.40440   1.000
    C118    C    0.15611   0.40305   0.01559   1.000
    C119    C    0.12390   0.32273   0.02198   1.000
    C120    C    0.09598   0.29659   0.09617   1.000
    C121    C    0.09922   0.35137   0.16427   1.000
    C122    C    0.13018   0.43210   0.15870   1.000
    C123    C    0.15906   0.45713   0.08467   1.000
    C124    C    0.34842   0.22976   0.65080   1.000
    C125    C    0.29175   0.16242   0.64777   1.000
    C126    C    0.31496   0.08443   0.62376   1.000
    C127    C    0.39646   0.07313   0.60397   1.000
    C128    C    0.45387   0.13926   0.60770   1.000
    C129    C    0.42969   0.21727   0.63011   1.000
    C130    C    0.84512   0.53117   0.59744   1.000
    C131    C    0.92875   0.54726   0.61770   1.000
    C132    C    0.95742   0.62602   0.64236   1.000
    C133    C    0.90216   0.68877   0.64837   1.000
    C134    C    0.81816   0.67343   0.63024   1.000
    C135    C    0.79040   0.59498   0.60395   1.000
    C136    C    0.84390   0.98399   0.59688   1.000
    C137    C    0.87618   0.97755   0.67719   1.000
    C138    C    0.90406   0.90331   0.70332   1.000
    C139    C    0.90070   0.83520   0.64854   1.000
    C140    C    0.86965   0.84073   0.56784   1.000
    C141    C    0.84082   0.91490   0.54282   1.000
    C142    C    0.65088   0.34915   0.76995   1.000
    C143    C    0.70775   0.35210   0.83715   1.000
    C144    C    0.68480   0.37608   0.91524   1.000
    C145    C    0.60335   0.39592   0.92676   1.000
    C146    C    0.54574   0.39224   0.86079   1.000
    C147    C    0.56966   0.36985   0.78268   1.000
    C148    C    0.53306   0.59695   0.84535   1.000
    C149    C    0.54912   0.61721   0.92800   1.000
    C150    C    0.62789   0.64221   0.95756   1.000
    C151    C    0.69067   0.64847   0.90237   1.000
    C152    C    0.67528   0.63059   0.81842   1.000
    C153    C    0.59684   0.60402   0.79066   1.000
    C154    C    0.98512   0.59466   0.84396   1.000
    C155    C    0.97949   0.67521   0.87560   1.000
    C156    C    0.90559   0.70204   0.90351   1.000
    C157    C    0.83700   0.64773   0.90080   1.000
    C158    C    0.84170   0.56681   0.87030   1.000
    C159    C    0.91554   0.54108   0.84147   1.000
    C160    C    0.34876   0.76879   0.65214   1.000
    C161    C    0.35110   0.83671   0.70786   1.000
    C162    C    0.37447   0.91463   0.68365   1.000
    C163    C    0.39433   0.92525   0.60207   1.000
    C164    C    0.39146   0.85846   0.54562   1.000
    C165    C    0.36966   0.78060   0.57080   1.000
    C166    C    0.59766   0.84337   0.53392   1.000
    C167    C    0.61753   0.92709   0.54950   1.000
    C168    C    0.64202   0.95626   0.62815   1.000
    C169    C    0.64825   0.90143   0.69137   1.000
    C170    C    0.63061   0.81736   0.67652   1.000
    C171    C    0.60448   0.78909   0.59817   1.000
    C172    C    0.59597   0.84322   0.98630   1.000
    C173    C    0.67634   0.87549   0.98015   1.000
    C174    C    0.70257   0.90352   0.90604   1.000
    C175    C    0.64786   0.90036   0.83774   1.000
    C176    C    0.56706   0.86940   0.84301   1.000
    C177    C    0.91502   0.68253   0.37645   1.000
    C178    C    0.92604   0.60099   0.39633   1.000
    C179    C    0.85962   0.54390   0.39261   1.000
    C180    C    0.78165   0.56844   0.37013   1.000
    C181    C    0.68853   0.99953   0.31212   1.000
    C182    C    0.31127   0.68702   0.00065   1.000
    C183    C    0.99981   0.30993   0.69003   1.000
    O184    O    0.23294   0.06583   0.32295   1.000
    O185    O    0.73583   0.06207   0.31215   1.000
    O186    O    0.32337   0.23340   0.06633   1.000
    O187    O    0.31062   0.73331   0.06371   1.000
    O188    O    0.06588   0.32285   0.23478   1.000
    O189    O    0.06291   0.30911   0.73650   1.000
    O190    O    0.93403   0.76466   0.67708   1.000
    O191    O    0.93681   0.26334   0.69091   1.000
    O192    O    0.76680   0.67697   0.93408   1.000
    O193    O    0.26408   0.68758   0.93807   1.000
    O194    O    0.67657   0.93373   0.76726   1.000
    O195    O    0.57665   0.42602   0.00077   1.000
    O196    O    0.00002   0.57367   0.42630   1.000
    O197    O    0.42340   0.99916   0.57395   1.000
loop_
    _geom_bond_atom_site_label_1
    _geom_bond_atom_site_label_2
    _geom_bond_distance
    _geom_bond_site_symmetry_2
    _ccdc_geom_bond_type
    C182   O187      1.25472      .   S
    C182   O193      1.25506  1_554   S
    O195   C87       1.38202      .   S
    O195   C145      1.38224  1_554   S
    C118   C119      1.40314      .   S
    C118   C123      1.40383      .   S
    C119   C120      1.39014      .   S
    C119   H28       1.08851  1_554   S
    H49    C150      1.08865  1_554   S
    H12    C94       1.08860      .   S
    H9     C86       1.08920      .   S
    H64    C173      1.08847  1_554   S
    C95    C94       1.38995      .   S
    C95    C96       1.39771      .   S
    C95    H13       1.08856  1_554   S
    O186   C96       1.38215      .   S
    O186   C102      1.38509      .   S
    H17    C101      1.08959      .   S
    C94    C93       1.40372      .   S
    C87    C86       1.40120      .   S
    C87    C91       1.39898      .   S
    H31    C123      1.08851      .   S
    C123   C122      1.38762      .   S
    C86    C85       1.39153      .   S
    C120   H29       1.08919      .   S
    C120   C121      1.39826      .   S
    C101   C102      1.39813      .   S
    C101   C100      1.39038      .   S
    C96    C97       1.40163      .   S
    C102   C103      1.40079      .   S
    H16    C100      1.08890  1_565   S
    C100   C99       1.40332      .   S
    C103   H18       1.08877      .   S
    C103   C104      1.38911      .   S
    H10    C91       1.08876      .   S
    C91    C92       1.38984      .   S
    C99    C104      1.40401      .   S
    C93    C98       1.40516      .   S
    C122   C121      1.40072      .   S
    C122   H30       1.08963      .   S
    C104   H19       1.08809      .   S
    C85    H8        1.08924      .   S
    C85    C84       1.40584      .   S
    C121   O188      1.38437      .   S
    C97    C98       1.38770      .   S
    C97    H14       1.08880      .   S
    C98    H15       1.08863      .   S
    C92    C84       1.40499      .   S
    C92    H11       1.08800      .   S
    H20    C106      1.08926      .   S
    O188   C114      1.38150      .   S
    H5     C80       1.08937      .   S
    O115   C181      1.25511      .   S
    H21    C107      1.08914      .   S
    H26    C116      1.08886      .   S
    H4     C79       1.08900  1_655   S
    C106   C107      1.39130      .   S
    C106   C105      1.40605      .   S
    C80    C79       1.38997      .   S
    C80    C81       1.39791      .   S
    C114   C116      1.40147      .   S
    C114   C113      1.39695      .   S
    C181   O185      1.25512  1_565   S
    C107   C108      1.40121      .   S
    O184   C75       1.38168      .   S
    O184   C81       1.38452      .   S
    C79    C78       1.40326      .   S
    C116   C117      1.38655      .   S
    H68    C90       1.08920      .   S
    H1     C74       1.08913  1_565   S
    C89    C90       1.40598      .   S
    C89    C180      1.40477      .   S
    C105   C110      1.40466      .   S
    C75    C74       1.39752      .   S
    C75    C76       1.40134      .   S
    C81    C82       1.40076      .   S
    C90    C177      1.39129      .   S
    C74    C73       1.38994      .   S
    H25    C113      1.08922  1_655   S
    H2     C76       1.08879      .   S
    H71    C180      1.08797      .   S
    C76    C77       1.38716      .   S
    C180   C179      1.39021      .   S
    C113   C112      1.39023      .   S
    C177   H69       1.08916      .   S
    C177   C178      1.40116      .   S
    C73    H0        1.08856      .   S
    C73    C72       1.40340      .   S
    C179   C178      1.39867      .   S
    C179   H70       1.08868      .   S
    C77    C72       1.40517      .   S
    C77    H3        1.08847      .   S
    C178   O196      1.38267  1_655   S
    C108   O196      1.38251      .   S
    C108   C109      1.39855      .   S
    C117   H27       1.08852      .   S
    C117   C111      1.40611      .   S
    C78    C83       1.40375      .   S
    C110   C109      1.39024      .   S
    C110   H23       1.08800      .   S
    C82    C83       1.38891      .   S
    C82    H6        1.08862      .   S
    C112   C111      1.40354      .   S
    C112   H24       1.08858      .   S
    C109   H22       1.08871      .   S
    C83    H7        1.08856      .   S
    H43    C141      1.08885      .   S
    H58    C164      1.08877      .   S
    H60    C167      1.08853      .   S
    H42    C140      1.08948      .   S
    H59    C165      1.08790      .   S
    C166   C167      1.40369      .   S
    C166   C171      1.40514      .   S
    C141   C140      1.38881      .   S
    C141   C136      1.40375      .   S
    C164   C165      1.38985      .   S
    C164   C163      1.39890      .   S
    C167   C168      1.38983      .   S
    C140   C139      1.40062      .   S
    C165   C160      1.40513      .   S
    O197   C163      1.38222      .   S
    O197   C127      1.38247  1_565   S
    H63    C171      1.08860      .   S
    H39    C135      1.08854      .   S
    H34    C128      1.08872      .   S
    C136   C137      1.40320      .   S
    C130   C135      1.40518      .   S
    C130   C131      1.40344      .   S
    C171   C170      1.38770      .   S
    C163   C162      1.40120      .   S
    C135   C134      1.38764      .   S
    C127   C128      1.39859      .   S
    C127   C126      1.40106      .   S
    C128   C129      1.39029      .   S
    H36    C131      1.08845      .   S
    C131   C132      1.38961      .   S
    H33    C126      1.08925      .   S
    C126   C125      1.39136      .   S
    C168   H61       1.08919  1_565   S
    C168   C169      1.39759      .   S
    C129   H35       1.08807      .   S
    C129   C124      1.40475      .   S
    C134   H38       1.08884      .   S
    C134   C133      1.40146      .   S
    C132   C133      1.39745      .   S
    C132   H37       1.08930  1_655   S
    C125   C124      1.40608      .   S
    C125   H32       1.08925      .   S
    C133   O190      1.38149      .   S
    C139   O190      1.38438      .   S
    C139   C138      1.39831      .   S
    C160   C161      1.40585      .   S
    C170   C169      1.40149      .   S
    C170   H62       1.08877      .   S
    C137   C138      1.39016      .   S
    C137   H40       1.08894  1_565   S
    C162   C161      1.39145      .   S
    C162   H57       1.08915      .   S
    C183   O191      1.25527      .   S
    C183   O189      1.25503  1_655   S
    C169   O194      1.38212      .   S
    C138   H41       1.08933      .   S
    C161   H56       1.08927      .   S
    H51    C153      1.08847      .   S
    H47    C147      1.08811      .   S
    O194   C175      1.38515      .   S
    C142   C147      1.40467      .   S
    C142   C143      1.40619      .   S
    H50    C152      1.08887      .   S
    C147   C146      1.39040      .   S
    H66    C176      1.08928      .   S
    C153   C152      1.38731      .   S
    C153   C148      1.40523      .   S
    H55    C159      1.08855      .   S
    C152   C151      1.40144      .   S
    H44    C143      1.08923      .   S
    C143   C144      1.39146      .   S
    C175   C176      1.40086      .   S
    C175   C174      1.39805      .   S
    C159   C154      1.40372      .   S
    C159   C158      1.38857      .   S
    C176   C88       1.38927      .   S
    C154   C155      1.40309      .   S
    C148   C149      1.38938      .   S
    C146   H46       1.08868      .   S
    C146   C145      1.39851      .   S
    H54    C158      1.08868      .   S
    C158   C157      1.40098      .   S
    C155   H52       1.08896  1_655   S
    C155   C156      1.39008      .   S
    H65    C174      1.08936      .   S
    C157   C156      1.39799      .   S
    C157   O192      1.38461      .   S
    C151   O192      1.38186      .   S
    C151   C150      1.39741      .   S
    C156   H53       1.08934      .   S
    C174   C173      1.39000      .   S
    C144   C145      1.40105      .   S
    C144   H45       1.08925      .   S
    C88    H67       1.08858      .   S
    C88    C172      1.40340      .   S
    C149   C150      1.39414      .   S
    C149   H48       1.09843      .   S
    C173   C172      1.40327      .   S
