# CIF file generated by openbabel 2.4.90, see http://openbabel.sf.net
data_I
_chemical_name_common ''
_cell_length_a 16.334
_cell_length_b 16.343
_cell_length_c 16.344
_cell_angle_alpha 92.276
_cell_angle_beta 92.425
_cell_angle_gamma 92.394
_space_group_name_H-M_alt 'P 1'
_space_group_name_Hall 'P 1'
loop_
    _symmetry_equiv_pos_as_xyz
    x,y,z
loop_
    _atom_site_label
    _atom_site_type_symbol
    _atom_site_fract_x
    _atom_site_fract_y
    _atom_site_fract_z
    _atom_site_occupancy
    Lv0     Lv   0.23806   0.12368   0.37500   1.000
    Lv1     Lv   0.62519   0.37544   0.00065   1.000
    Lv2     Lv   0.76172   0.62487   0.87616   1.000
    Lv3     Lv   0.37472   0.23783   0.12473   1.000
    Lv4     Lv   0.87609   0.76004   0.62563   1.000
    Lv5     Lv   0.12388   0.37427   0.23943   1.000
    Lv6     Lv   0.37466   0.99922   0.62452   1.000
    Lv7     Lv   0.62527   0.87525   0.76259   1.000
    Lv8     Lv   0.29532   0.70264   0.00081   1.000
    Lv9     Lv   0.00000   0.62352   0.37643   1.000
    Lv10    Lv   0.70415   0.99970   0.29618   1.000
    Lv11    Lv   0.99984   0.29412   0.70581   1.000
