# CIF file generated by openbabel 2.4.90, see http://openbabel.sf.net
data_I
_chemical_name_common ''
_cell_length_a 16.334
_cell_length_b 16.343
_cell_length_c 16.344
_cell_angle_alpha 92.276
_cell_angle_beta 92.425
_cell_angle_gamma 92.394
_space_group_name_H-M_alt 'P 1'
_space_group_name_Hall 'P 1'
loop_
    _symmetry_equiv_pos_as_xyz
    x,y,z
loop_
    _atom_site_label
    _atom_site_type_symbol
    _atom_site_fract_x
    _atom_site_fract_y
    _atom_site_fract_z
    _atom_site_occupancy
    N0      N    0.23806   0.12368   0.37500   1.000
    N1      N    0.62519   0.37544   0.00065   1.000
    N2      N    0.76172   0.62487   0.87616   1.000
    N3      N    0.37472   0.23783   0.12473   1.000
    N4      N    0.87609   0.76004   0.62563   1.000
    N5      N    0.12388   0.37427   0.23943   1.000
    N6      N    0.37466   0.99922   0.62452   1.000
    N7      N    0.62527   0.87525   0.76259   1.000
    N8      N    0.29532   0.70264   0.00081   1.000
    N9      N    0.00000   0.62352   0.37643   1.000
    N10     N    0.70415   0.99970   0.29618   1.000
    N11     N    0.99984   0.29412   0.70581   1.000
    Zr12    Zr   0.50011   0.74433   0.25564   1.000
    O13     O    0.31810   0.69354   0.30596   1.000
    O14     O    0.68201   0.69397   0.30637   1.000
    O15     O    0.44815   0.92510   0.20169   1.000
    O16     O    0.55223   0.79791   0.44153   1.000
    O17     O    0.55182   0.79812   0.07499   1.000
    O18     O    0.58593   0.84455   0.26718   1.000
    O19     O    0.41387   0.73218   0.15574   1.000
    O20     O    0.44814   0.55863   0.20212   1.000
    Zr21    Zr   0.25458   0.49900   0.74617   1.000
    O22     O    0.15471   0.41270   0.73452   1.000
    O23     O    0.07392   0.55075   0.79949   1.000
    O24     O    0.30463   0.31715   0.69481   1.000
    O25     O    0.20083   0.44726   0.56045   1.000
    O26     O    0.20093   0.44740   0.92691   1.000
    O27     O    0.26634   0.58478   0.84603   1.000
    O28     O    0.44058   0.55128   0.79962   1.000
    O29     O    0.30532   0.68111   0.69580   1.000
    Zr30    Zr   0.74516   0.25363   0.50092   1.000
    O31     O    0.69453   0.30409   0.31882   1.000
    O32     O    0.84501   0.26530   0.58725   1.000
    O33     O    0.79904   0.43919   0.55266   1.000
    O34     O    0.69501   0.30507   0.68269   1.000
    O35     O    0.55919   0.20019   0.44859   1.000
    O36     O    0.73337   0.15400   0.41486   1.000
    O37     O    0.92585   0.20037   0.44918   1.000
    O38     O    0.79895   0.07277   0.55253   1.000
loop_
    _geom_bond_atom_site_label_1
    _geom_bond_atom_site_label_2
    _geom_bond_distance
    _geom_bond_site_symmetry_2
    _ccdc_geom_bond_type
    Zr12   O13       3.20285      .   S
    N9     O13       5.45408      .   S
    Zr12   O14       3.20044      .   S
    N9     O14       5.45127  1_455   S
    Zr12   O15       3.25260      .   S
    N3     O15       5.48064  1_545   S
    Zr12   O16       3.19841      .   S
    N7     O16       5.41971      .   S
    Zr12   O17       3.24949      .   S
    N7     O17       5.47739  1_556   S
    Zr12   O18       2.10833      .   S
    N10    O18       3.13060      .   S
    Zr12   O19       2.10841      .   S
    N8     O19       3.13126      .   S
    Zr12   O20       3.19487      .   S
    N3     O20       5.41707      .   S
    Zr21   O22       2.10879      .   S
    N11    O22       3.12921  1_655   S
    Zr21   O23       3.24814      .   S
    N2     O23       5.47524  1_655   S
    Zr21   O24       3.20435      .   S
    N6     O24       5.45531  1_565   S
    Zr21   O25       3.19509      .   S
    N5     O25       5.41765      .   S
    Zr21   O26       3.24960      .   S
    N5     O26       5.47772  1_554   S
    Zr21   O27       2.10591      .   S
    N8     O27       3.12562  1_554   S
    Zr21   O28       3.19722      .   S
    N2     O28       5.41527      .   S
    Zr21   O29       3.20449      .   S
    N6     O29       5.45615      .   S
    Zr30   O31       3.20414      .   S
    N1     O31       5.45678      .   S
    Zr30   O32       2.10827      .   S
    N11    O32       3.12829      .   S
    Zr30   O33       3.19316      .   S
    N4     O33       5.41554      .   S
    Zr30   O34       3.20452      .   S
    N1     O34       5.45575  1_554   S
    Zr30   O35       3.19708      .   S
    N0     O35       5.41494      .   S
    Zr30   O36       2.10621      .   S
    N10    O36       3.12759  1_565   S
    Zr30   O37       3.24819      .   S
    N0     O37       5.47570  1_455   S
    Zr30   O38       3.25144      .   S
    N4     O38       5.48016  1_565   S
