# CIF file generated by openbabel 2.4.90, see http://openbabel.sf.net
data_I
_chemical_name_common ''
_cell_length_a 20.243
_cell_length_b 22.896
_cell_length_c 13.99
_cell_angle_alpha 90.005
_cell_angle_beta 100.938
_cell_angle_gamma 89.996
_space_group_name_H-M_alt 'P 1'
_space_group_name_Hall 'P 1'
loop_
    _symmetry_equiv_pos_as_xyz
    x,y,z
loop_
    _atom_site_label
    _atom_site_type_symbol
    _atom_site_fract_x
    _atom_site_fract_y
    _atom_site_fract_z
    _atom_site_occupancy
    N0      N    0.47079   0.99998   0.97296   1.000
    N1      N    0.47079   0.50001   0.97296   1.000
    N2      N    0.97079   0.99999   0.97297   1.000
    N3      N    0.97080   0.50001   0.97296   1.000
    N4      N    0.02921   0.99999   0.02700   1.000
    N5      N    0.02922   0.50001   0.02701   1.000
    N6      N    0.52922   0.99999   0.02701   1.000
    N7      N    0.52922   0.50000   0.02701   1.000
loop_
    _geom_bond_atom_site_label_1
    _geom_bond_atom_site_label_2
    _geom_bond_distance
    _geom_bond_site_symmetry_2
    _ccdc_geom_bond_type
    N4     N2        1.27697  1_454   S
    N7     N1        1.27719  1_554   S
    N6     N0        1.27720  1_554   S
    N5     N3        1.27707  1_454   S
