# CIF file generated by openbabel 2.4.90, see http://openbabel.sf.net
data_I
_chemical_name_common ''
_cell_length_a 20.243
_cell_length_b 22.896
_cell_length_c 13.99
_cell_angle_alpha 90.005
_cell_angle_beta 100.938
_cell_angle_gamma 89.996
_space_group_name_H-M_alt 'P 1'
_space_group_name_Hall 'P 1'
loop_
    _symmetry_equiv_pos_as_xyz
    x,y,z
loop_
    _atom_site_label
    _atom_site_type_symbol
    _atom_site_fract_x
    _atom_site_fract_y
    _atom_site_fract_z
    _atom_site_occupancy
    Zn0     Zn   0.18637   0.50000   0.60058   1.000
    Zn1     Zn   0.68637   0.00000   0.60058   1.000
    Zn2     Zn   0.68637   0.50000   0.60058   1.000
    Zn3     Zn   0.31364   1.00000   0.39939   1.000
    Zn4     Zn   0.31363   0.50000   0.39939   1.000
    Zn5     Zn   0.81364   1.00000   0.39940   1.000
    Zn6     Zn   0.81364   0.50000   0.39938   1.000
    Zn7     Zn   0.18637   0.00000   0.60058   1.000
    C8      C    0.33322   1.00000   0.64486   1.000
    C9      C    0.33322   0.50001   0.64480   1.000
    C10     C    0.83322   1.00000   0.64486   1.000
    C11     C    0.83323   0.50000   0.64485   1.000
    C12     C    0.08609   0.99998   0.68598   1.000
    C13     C    0.08611   0.50000   0.68598   1.000
    C14     C    0.58610   0.99999   0.68598   1.000
    C15     C    0.58610   0.50001   0.68598   1.000
    C16     C    0.16679   0.99999   0.35512   1.000
    C17     C    0.16679   0.49999   0.35511   1.000
    C18     C    0.66680   0.99999   0.35511   1.000
    C19     C    0.66679   0.50000   0.35512   1.000
    C20     C    0.41391   0.99999   0.31399   1.000
    C21     C    0.41390   0.50001   0.31398   1.000
    C22     C    0.91391   0.99999   0.31399   1.000
    C23     C    0.91391   0.49999   0.31399   1.000
    O24     O    0.28228   0.99999   0.68677   1.000
    O25     O    0.28228   0.50000   0.68676   1.000
    O26     O    0.78228   1.00000   0.68677   1.000
    O27     O    0.78229   0.50001   0.68676   1.000
    O28     O    0.33010   0.00000   0.55300   1.000
    O29     O    0.33011   0.50001   0.55379   1.000
    O30     O    0.83010   0.00001   0.55380   1.000
    O31     O    0.83012   0.50001   0.55379   1.000
    O32     O    0.07939   0.00001   0.59296   1.000
    O33     O    0.07941   0.50000   0.59296   1.000
    O34     O    0.57940   0.00000   0.59296   1.000
    O35     O    0.57940   0.50000   0.59296   1.000
    O36     O    0.14354   0.00000   0.74143   1.000
    O37     O    0.14355   0.50000   0.74144   1.000
    O38     O    0.64355   0.00000   0.74140   1.000
    O39     O    0.64355   0.50000   0.74143   1.000
    O40     O    0.21773   1.00000   0.31320   1.000
    O41     O    0.21772   0.50000   0.31320   1.000
    O42     O    0.71773   0.99999   0.31320   1.000
    O43     O    0.71772   0.50000   0.31320   1.000
    O44     O    0.16990   1.00000   0.44618   1.000
    O45     O    0.16990   0.50000   0.44610   1.000
    O46     O    0.66991   0.99999   0.44618   1.000
    O47     O    0.66990   0.50000   0.44618   1.000
    O48     O    0.42061   0.00000   0.40702   1.000
    O49     O    0.42060   0.50000   0.40701   1.000
    O50     O    0.92061   0.00001   0.40701   1.000
    O51     O    0.92061   0.50001   0.40701   1.000
    O52     O    0.35646   1.00000   0.25854   1.000
    O53     O    0.35645   0.49999   0.25853   1.000
    O54     O    0.85646   1.00000   0.25850   1.000
    O55     O    0.85646   0.50000   0.25853   1.000
loop_
    _geom_bond_atom_site_label_1
    _geom_bond_atom_site_label_2
    _geom_bond_distance
    _geom_bond_site_symmetry_2
    _ccdc_geom_bond_type
    O54    C22       1.26980      .   S
    O54    Zn5       2.29898      .   S
    O55    C23       1.26963      .   S
    O55    Zn6       2.29836      .   S
    O53    C21       1.26954      .   S
    O53    Zn4       2.29844      .   S
    O52    C20       1.26956      .   S
    O52    Zn3       2.29841      .   S
    O43    C19       1.27929      .   S
    O43    Zn6       2.08212      .   S
    O42    C18       1.27924      .   S
    O42    Zn5       2.08205      .   S
    O41    C17       1.27922      .   S
    O41    Zn4       2.08206      .   S
    O40    C16       1.27931      .   S
    O40    Zn3       2.08209      .   S
    C21    O49       1.28269      .   S
    C22    O50       1.28255  1_565   S
    C23    O51       1.28254      .   S
    C20    O48       1.28268  1_565   S
    C17    O45       1.26251      .   S
    C18    O46       1.26362      .   S
    C19    O47       1.26349      .   S
    C16    O44       1.26349      .   S
    Zn6    O51       2.14774      .   S
    Zn6    O31       2.12233      .   S
    Zn4    O49       2.14758      .   S
    Zn4    O29       2.12219      .   S
    Zn3    O48       2.14780  1_565   S
    Zn3    O28       2.11127  1_565   S
    Zn5    O50       2.14766  1_565   S
    Zn5    O30       2.12220  1_565   S
    O45    Zn0       2.12330      .   S
    O47    Zn2       2.12219      .   S
    O46    Zn1       2.12220  1_565   S
    O44    Zn7       2.12220  1_565   S
    O28    C8        1.27467  1_545   S
    O31    C11       1.26349      .   S
    O29    C9        1.26280      .   S
    O30    C10       1.26349  1_545   S
    O33    Zn0       2.14764      .   S
    O33    C13       1.28254      .   S
    O32    Zn7       2.14784      .   S
    O32    C12       1.28254  1_545   S
    O34    Zn1       2.14768      .   S
    O34    C14       1.28254  1_545   S
    O35    Zn2       2.14778      .   S
    O35    C15       1.28254      .   S
    Zn2    O27       2.08209      .   S
    Zn2    O39       2.29836      .   S
    Zn0    O25       2.08199      .   S
    Zn0    O37       2.29845      .   S
    Zn1    O26       2.08203  1_545   S
    Zn1    O38       2.29793      .   S
    Zn7    O24       2.08211  1_545   S
    Zn7    O36       2.29837      .   S
    C9     O25       1.27967      .   S
    C11    O27       1.27924      .   S
    C10    O26       1.27924      .   S
    C8     O24       1.27924      .   S
    C13    O37       1.26962      .   S
    C14    O38       1.26939  1_565   S
    C15    O39       1.26957      .   S
    C12    O36       1.26959  1_565   S
