# CIF file generated by openbabel 2.4.90, see http://openbabel.sf.net
data_I
_chemical_name_common ''
_cell_length_a 20.243
_cell_length_b 22.896
_cell_length_c 13.99
_cell_angle_alpha 90.005
_cell_angle_beta 100.938
_cell_angle_gamma 89.996
_space_group_name_H-M_alt 'P 1'
_space_group_name_Hall 'P 1'
loop_
    _symmetry_equiv_pos_as_xyz
    x,y,z
loop_
    _atom_site_label
    _atom_site_type_symbol
    _atom_site_fract_x
    _atom_site_fract_y
    _atom_site_fract_z
    _atom_site_occupancy
    N0      N    0.81036   0.25000   0.40448   1.000
    N1      N    0.68965   0.25000   0.59547   1.000
    N2      N    0.53434   0.99999   0.22979   1.000
    N3      N    0.46567   0.99999   0.77018   1.000
    O4      O    0.51584   0.99999   0.07685   1.000
    N5      N    0.03434   0.50000   0.22978   1.000
    N6      N    0.96568   0.50001   0.77018   1.000
    O7      O    0.98417   0.50001   0.92312   1.000
    N8      N    0.68965   0.75000   0.59548   1.000
    N9      N    0.31036   0.25000   0.40447   1.000
    N10     N    0.81036   0.75000   0.40448   1.000
    N11     N    0.03433   0.99999   0.22979   1.000
    N12     N    0.96567   0.99999   0.77018   1.000
    O13     O    0.98417   0.99999   0.92312   1.000
    N14     N    0.18965   0.25000   0.59546   1.000
    N15     N    0.53433   0.50000   0.22978   1.000
    N16     N    0.46567   0.50001   0.77008   1.000
    O17     O    0.51584   0.50000   0.07685   1.000
    N18     N    0.18965   0.75000   0.59548   1.000
    N19     N    0.31036   0.75000   0.40444   1.000
    Zr20    Zr   0.25000   1.00000   0.49993   1.000
    O21     O    0.28059   0.92572   0.45158   1.000
    O22     O    0.28059   0.07428   0.45159   1.000
    O23     O    0.21942   0.92572   0.54832   1.000
    O24     O    0.21941   0.07428   0.54832   1.000
    O25     O    0.16673   0.99999   0.38809   1.000
    O26     O    0.13014   0.99999   0.61945   1.000
    O27     O    0.36987   1.00000   0.38047   1.000
    O28     O    0.33328   0.99999   0.61182   1.000
    Zr29    Zr   0.25000   0.50000   0.49997   1.000
    O30     O    0.36986   0.50000   0.38049   1.000
    O31     O    0.33328   0.50000   0.61181   1.000
    O32     O    0.13014   0.50000   0.61947   1.000
    O33     O    0.16673   0.50000   0.38812   1.000
    O34     O    0.21942   0.57428   0.54834   1.000
    O35     O    0.21942   0.42572   0.54834   1.000
    O36     O    0.28059   0.57428   0.45160   1.000
    O37     O    0.28059   0.42572   0.45161   1.000
    Zr38    Zr   0.75001   0.50000   0.49998   1.000
    O39     O    0.66673   0.50000   0.38812   1.000
    O40     O    0.86987   0.50000   0.38048   1.000
    O41     O    0.83328   0.50000   0.61184   1.000
    O42     O    0.71942   0.42572   0.54835   1.000
    O43     O    0.71942   0.57428   0.54835   1.000
    O44     O    0.78059   0.57428   0.45161   1.000
    O45     O    0.78059   0.42572   0.45161   1.000
    O46     O    0.63014   0.50000   0.61945   1.000
    Zr47    Zr   0.75001   1.00000   0.49998   1.000
    O48     O    0.86987   0.99999   0.38049   1.000
    O49     O    0.83328   1.00000   0.61185   1.000
    O50     O    0.66673   1.00000   0.38812   1.000
    O51     O    0.71942   0.07428   0.54835   1.000
    O52     O    0.71942   0.92572   0.54835   1.000
    O53     O    0.63014   0.99999   0.61947   1.000
    O54     O    0.78059   0.92572   0.45162   1.000
    O55     O    0.78059   0.07428   0.45162   1.000
loop_
    _geom_bond_atom_site_label_1
    _geom_bond_atom_site_label_2
    _geom_bond_distance
    _geom_bond_site_symmetry_2
    _ccdc_geom_bond_type
    N3     O4        4.21724  1_556   S
    N2     O4        2.10096      .   S
    N5     O7        4.21701  1_454   S
    N6     O7        2.10103      .   S
    N11    O13       4.21708  1_454   S
    N12    O13       2.10098      .   S
    N16    O17       4.21850  1_556   S
    N15    O17       2.10092      .   S
    Zr20   O21       1.97280      .   S
    N19    O21       4.13935      .   S
    Zr20   O22       1.97296  1_565   S
    N9     O22       4.13958      .   S
    Zr20   O23       1.97317      .   S
    N18    O23       4.13957      .   S
    Zr20   O24       1.97307  1_565   S
    N14    O24       4.13945      .   S
    Zr20   O25       2.07095      .   S
    N11    O25       3.13607      .   S
    Zr20   O26       3.19731      .   S
    N12    O26       4.26568  1_655   S
    Zr20   O27       3.19685      .   S
    N2     O27       4.26523      .   S
    Zr20   O28       2.07134      .   S
    N3     O28       3.13653      .   S
    Zr29   O30       3.19698      .   S
    N15    O30       4.26537      .   S
    Zr29   O31       2.07090      .   S
    N16    O31       3.13588      .   S
    Zr29   O32       3.19703      .   S
    N6     O32       4.26535  1_655   S
    Zr29   O33       2.07109      .   S
    N5     O33       3.13634      .   S
    Zr29   O34       1.97293      .   S
    N18    O34       4.13941      .   S
    Zr29   O35       1.97308      .   S
    N14    O35       4.13960      .   S
    Zr29   O36       1.97311      .   S
    N19    O36       4.13970      .   S
    Zr29   O37       1.97292      .   S
    N9     O37       4.13945      .   S
    Zr38   O39       2.07115      .   S
    N15    O39       3.13641      .   S
    Zr38   O40       3.19711      .   S
    N5     O40       4.26538  1_455   S
    Zr38   O41       2.07113      .   S
    N6     O41       3.13634      .   S
    Zr38   O42       1.97307      .   S
    N1     O42       4.13958      .   S
    Zr38   O43       1.97292      .   S
    N8     O43       4.13940      .   S
    Zr38   O44       1.97312      .   S
    N10    O44       4.13960      .   S
    Zr38   O45       1.97292      .   S
    N0     O45       4.13941      .   S
    Zr38   O46       3.19682      .   S
    N16    O46       4.26475      .   S
    Zr47   O48       3.19702      .   S
    N11    O48       4.26538  1_455   S
    Zr47   O49       2.07111      .   S
    N12    O49       3.13632      .   S
    Zr47   O50       2.07107      .   S
    N2     O50       3.13631      .   S
    Zr47   O51       1.97293  1_565   S
    N1     O51       4.13941      .   S
    Zr47   O52       1.97303      .   S
    N8     O52       4.13954      .   S
    Zr47   O53       3.19705      .   S
    N3     O53       4.26540      .   S
    Zr47   O54       1.97288      .   S
    N10    O54       4.13937      .   S
    Zr47   O55       1.97310  1_565   S
    N0     O55       4.13966      .   S
