# CIF file generated by openbabel 2.4.90, see http://openbabel.sf.net
data_I
_chemical_name_common ''
_cell_length_a 15.44
_cell_length_b 17.79
_cell_length_c 18.318
_cell_angle_alpha 112.232
_cell_angle_beta 90.004
_cell_angle_gamma 89.996
_space_group_name_H-M_alt 'P 1'
_space_group_name_Hall 'P 1'
loop_
    _symmetry_equiv_pos_as_xyz
    x,y,z
loop_
    _atom_site_label
    _atom_site_type_symbol
    _atom_site_fract_x
    _atom_site_fract_y
    _atom_site_fract_z
    _atom_site_occupancy
    H0      H    0.83211   0.16264   0.80626   1.000
    H1      H    0.74736   0.28286   0.89260   1.000
    H2      H    0.62188   0.29559   0.68811   1.000
    H3      H    0.70991   0.17791   0.60156   1.000
    H4      H    0.10549   0.77328   0.87207   1.000
    H5      H    0.20318   0.66477   0.78354   1.000
    H6      H    0.39793   0.73257   0.96439   1.000
    H7      H    0.30027   0.84130   0.05289   1.000
    H8      H    0.67837   0.66085   0.97421   1.000
    H9      H    0.75410   0.78709   0.06108   1.000
    H10     H    0.82093   0.84075   0.85813   1.000
    H11     H    0.74436   0.71514   0.77126   1.000
    H12     H    0.33208   0.33733   0.69374   1.000
    H13     H    0.24736   0.21709   0.60735   1.000
    H14     H    0.12190   0.20438   0.81191   1.000
    H15     H    0.20991   0.32208   0.89845   1.000
    H16     H    0.60559   0.72672   0.62796   1.000
    H17     H    0.70331   0.83521   0.71647   1.000
    H18     H    0.89804   0.76731   0.53562   1.000
    H19     H    0.80034   0.65860   0.44713   1.000
    H20     H    0.17835   0.83918   0.52580   1.000
    H21     H    0.25409   0.71295   0.43890   1.000
    H22     H    0.32091   0.65923   0.64185   1.000
    H23     H    0.24434   0.78484   0.72872   1.000
    H24     H    0.16790   0.83736   0.19370   1.000
    H25     H    0.25264   0.71713   0.10733   1.000
    H26     H    0.37812   0.70440   0.31189   1.000
    H27     H    0.29010   0.82209   0.39840   1.000
    H28     H    0.89451   0.22671   0.12794   1.000
    H29     H    0.79681   0.33522   0.21647   1.000
    H30     H    0.60207   0.26742   0.03562   1.000
    H31     H    0.69973   0.15869   0.94712   1.000
    H32     H    0.32164   0.33915   0.02570   1.000
    H33     H    0.24590   0.21292   0.93891   1.000
    H34     H    0.17907   0.15926   0.14186   1.000
    H35     H    0.25564   0.28486   0.22873   1.000
    H36     H    0.66793   0.66267   0.30625   1.000
    H37     H    0.75266   0.78291   0.39265   1.000
    H38     H    0.87811   0.79562   0.18809   1.000
    H39     H    0.79010   0.67793   0.10155   1.000
    H40     H    0.39441   0.27329   0.37204   1.000
    H41     H    0.29668   0.16480   0.28353   1.000
    H42     H    0.10195   0.23271   0.46439   1.000
    H43     H    0.19966   0.34142   0.55288   1.000
    H44     H    0.82166   0.16081   0.47420   1.000
    H45     H    0.74593   0.28705   0.56109   1.000
    H46     H    0.67909   0.34075   0.35810   1.000
    H47     H    0.75565   0.21514   0.27127   1.000
    C48     C    0.77777   0.16401   0.69830   1.000
    C49     C    0.78697   0.19280   0.78066   1.000
    C50     C    0.73910   0.25930   0.82892   1.000
    C51     C    0.67939   0.29687   0.79582   1.000
    C52     C    0.66831   0.26651   0.71369   1.000
    C53     C    0.71754   0.20111   0.66534   1.000
    C54     C    0.19690   0.81403   0.96780   1.000
    C55     C    0.16979   0.76421   0.89172   1.000
    C56     C    0.22403   0.70382   0.84250   1.000
    C57     C    0.30659   0.69207   0.86857   1.000
    C58     C    0.33369   0.74181   0.94469   1.000
    C59     C    0.27949   0.80231   0.99389   1.000
    C60     C    0.70643   0.68058   0.86740   1.000
    C61     C    0.70922   0.70066   0.94917   1.000
    C62     C    0.75193   0.77053   0.99755   1.000
    C63     C    0.79304   0.82093   0.96494   1.000
    C64     C    0.79001   0.80100   0.88320   1.000
    C65     C    0.74705   0.73124   0.83477   1.000
    C66     C    0.27776   0.33597   0.80162   1.000
    C67     C    0.28696   0.30716   0.71935   1.000
    C68     C    0.23910   0.24066   0.67100   1.000
    C69     C    0.17941   0.20308   0.70419   1.000
    C70     C    0.16833   0.23346   0.78632   1.000
    C71     C    0.21754   0.29887   0.83467   1.000
    C72     C    0.69699   0.68593   0.53222   1.000
    C73     C    0.66989   0.73577   0.60830   1.000
    C74     C    0.72414   0.79614   0.65751   1.000
    C75     C    0.80671   0.80787   0.63143   1.000
    C76     C    0.83380   0.75810   0.55532   1.000
    C77     C    0.77958   0.69761   0.50614   1.000
    C78     C    0.20641   0.81943   0.63260   1.000
    C79     C    0.20921   0.79936   0.55084   1.000
    C80     C    0.25192   0.72950   0.50240   1.000
    C81     C    0.29302   0.67908   0.53504   1.000
    C82     C    0.29000   0.69900   0.61678   1.000
    C83     C    0.24703   0.76875   0.66522   1.000
    C84     C    0.22223   0.83599   0.30161   1.000
    C85     C    0.21303   0.80719   0.21934   1.000
    C86     C    0.26090   0.74069   0.17108   1.000
    C87     C    0.32061   0.70312   0.20418   1.000
    C88     C    0.33169   0.73348   0.28631   1.000
    C89     C    0.28246   0.79888   0.33465   1.000
    C90     C    0.80309   0.18596   0.03220   1.000
    C91     C    0.83021   0.23578   0.10828   1.000
    C92     C    0.77597   0.29617   0.15750   1.000
    C93     C    0.69340   0.30792   0.13143   1.000
    C94     C    0.66631   0.25818   0.05531   1.000
    C95     C    0.72051   0.19768   0.00612   1.000
    C96     C    0.29358   0.31943   0.13200   1.000
    C97     C    0.29078   0.29934   0.05083   1.000
    C98     C    0.24807   0.22948   0.00244   1.000
    C99     C    0.20697   0.17907   0.03505   1.000
    C100    C    0.20999   0.19901   0.11679   1.000
    C101    C    0.25295   0.26877   0.16523   1.000
    C102    C    0.72225   0.66403   0.19837   1.000
    C103    C    0.71306   0.69284   0.28065   1.000
    C104    C    0.76091   0.75934   0.32890   1.000
    C105    C    0.82061   0.79691   0.29580   1.000
    C106    C    0.83168   0.76654   0.21367   1.000
    C107    C    0.78246   0.70114   0.16533   1.000
    C108    C    0.30301   0.31408   0.46778   1.000
    C109    C    0.33011   0.26425   0.39170   1.000
    C110    C    0.27585   0.20387   0.34250   1.000
    C111    C    0.19328   0.19214   0.36850   1.000
    C112    C    0.16620   0.24191   0.44469   1.000
    C113    C    0.22042   0.30240   0.49387   1.000
    C114    C    0.79359   0.18056   0.36739   1.000
    C115    C    0.79080   0.20063   0.44916   1.000
    C116    C    0.74808   0.27049   0.49755   1.000
    C117    C    0.70698   0.32091   0.46495   1.000
    C118    C    0.71000   0.30099   0.38321   1.000
    C119    C    0.75296   0.23123   0.33477   1.000
loop_
    _geom_bond_atom_site_label_1
    _geom_bond_atom_site_label_2
    _geom_bond_distance
    _geom_bond_site_symmetry_2
    _ccdc_geom_bond_type
    C98    C99       1.40326      .   S
    C98    C97       1.38985      .   S
    C98    H33       1.08755  1_554   S
    C95    C90       1.40454      .   S
    C95    C94       1.39175      .   S
    C95    H31       1.08850  1_554   S
    H32    C97       1.08965      .   S
    C90    C91       1.40294      .   S
    C99    C100      1.40287      .   S
    H30    C94       1.08887      .   S
    C97    C96       1.39222      .   S
    H7     C59       1.08851  1_554   S
    C94    C93       1.40305      .   S
    H9     C62       1.08755  1_554   S
    H39    C107      1.08827      .   S
    H25    C86       1.08868      .   S
    C91    H28       1.08872      .   S
    C91    C92       1.39116      .   S
    C100   H34       1.08843      .   S
    C100   C101      1.39077      .   S
    C93    C92       1.40442      .   S
    C96    C101      1.41121      .   S
    C92    H29       1.08864      .   S
    C101   H35       1.08843      .   S
    C107   C102      1.40319      .   S
    C107   C106      1.39134      .   S
    C86    C87       1.40389      .   S
    C86    C85       1.39134      .   S
    H38    C106      1.08838      .   S
    H24    C85       1.08857      .   S
    C102   C103      1.40356      .   S
    C87    C88       1.40337      .   S
    C106   C105      1.40337      .   S
    C85    C84       1.40339      .   S
    H47    C119      1.08846      .   S
    C103   H36       1.08808      .   S
    C103   C104      1.39131      .   S
    H41    C110      1.08869      .   S
    C88    H26       1.08840      .   S
    C88    C89       1.39131      .   S
    C105   C104      1.40387      .   S
    C84    C89       1.40322      .   S
    C104   H37       1.08868      .   S
    C89    H27       1.08775      .   S
    C119   C114      1.40379      .   S
    C119   C118      1.39074      .   S
    C110   C111      1.40386      .   S
    C110   C109      1.39109      .   S
    H46    C118      1.08901      .   S
    C114   C115      1.40294      .   S
    C111   C112      1.40415      .   S
    H40    C109      1.08867      .   S
    C118   C117      1.40292      .   S
    C109   C108      1.40297      .   S
    H21    C80       1.08704      .   S
    C112   H42       1.08893      .   S
    C112   C113      1.39176      .   S
    H19    C77       1.08869      .   S
    C115   H44       1.08861      .   S
    C115   C116      1.38980      .   S
    C117   C116      1.40321      .   S
    C108   C113      1.40461      .   S
    C113   H43       1.08869      .   S
    C116   H45       1.08774      .   S
    C80    C81       1.40373      .   S
    C80    C79       1.39008      .   S
    C77    C72       1.40455      .   S
    C77    C76       1.39174      .   S
    H20    C79       1.08863      .   S
    C72    C73       1.40298      .   S
    C81    C82       1.40293      .   S
    H18    C76       1.08894      .   S
    C79    C78       1.40277      .   S
    C76    C75       1.40305      .   S
    H3     C53       1.08826      .   S
    H13    C68       1.08699      .   S
    C73    H16       1.08868      .   S
    C73    C74       1.39115      .   S
    C82    H22       1.08854      .   S
    C82    C83       1.39073      .   S
    C75    C74       1.40444      .   S
    C78    C83       1.40381      .   S
    C74    H17       1.08856      .   S
    C83    H23       1.08847      .   S
    C53    C48       1.40233      .   S
    C53    C52       1.39137      .   S
    C68    C69       1.40487      .   S
    C68    C67       1.39188      .   S
    H2     C52       1.08840      .   S
    H12    C67       1.08820      .   S
    C48    C49       1.40493      .   S
    C69    C70       1.40338      .   S
    C52    C51       1.40336      .   S
    C67    C66       1.40339      .   S
    H11    C65       1.08860      .   S
    C49    H0        1.08810      .   S
    C49    C50       1.39133      .   S
    H5     C56       1.08853      .   S
    C70    H14       1.08850      .   S
    C70    C71       1.39138      .   S
    C51    C50       1.40391      .   S
    C66    C71       1.40331      .   S
    C50    H1        1.08749      .   S
    C71    H15       1.08827      .   S
    C65    C60       1.40380      .   S
    C65    C64       1.39072      .   S
    C56    C57       1.40442      .   S
    C56    C55       1.39117      .   S
    H10    C64       1.08844      .   S
    C60    C61       1.40289      .   S
    C57    C58       1.40306      .   S
    H4     C55       1.08865      .   S
    C64    C63       1.40287      .   S
    C55    C54       1.40299      .   S
    C58    H6        1.08895      .   S
    C58    C59       1.39180      .   S
    C61    H8        1.08854      .   S
    C61    C62       1.38978      .   S
    C63    C62       1.40323      .   S
    C54    C59       1.40461      .   S
