# CIF file generated by openbabel 2.4.90, see http://openbabel.sf.net
data_I
_chemical_name_common ''
_cell_length_a 15.44
_cell_length_b 17.79
_cell_length_c 18.318
_cell_angle_alpha 112.232
_cell_angle_beta 90.004
_cell_angle_gamma 89.996
_space_group_name_H-M_alt 'P 1'
_space_group_name_Hall 'P 1'
loop_
    _symmetry_equiv_pos_as_xyz
    x,y,z
loop_
    _atom_site_label
    _atom_site_type_symbol
    _atom_site_fract_x
    _atom_site_fract_y
    _atom_site_fract_z
    _atom_site_occupancy
    Zn0     Zn   0.09665   0.00295   0.16680   1.000
    Zn1     Zn   0.59908   0.49677   0.99659   1.000
    Zn2     Zn   0.90009   0.00000   0.16628   1.000
    Zn3     Zn   0.00000   0.99736   0.66599   1.000
    Zn4     Zn   0.59666   0.49706   0.33320   1.000
    Zn5     Zn   0.09908   0.00320   0.50343   1.000
    Zn6     Zn   0.40008   0.49994   0.33370   1.000
    Zn7     Zn   0.49998   0.49735   0.16599   1.000
    Zn8     Zn   0.90337   0.99707   0.83320   1.000
    Zn9     Zn   0.40093   0.50322   0.00342   1.000
    Zn10    Zn   0.09992   0.99993   0.83371   1.000
    Zn11    Zn   0.99997   0.00264   0.33401   1.000
    Zn12    Zn   0.40336   0.50295   0.66680   1.000
    Zn13    Zn   0.90094   0.99680   0.49657   1.000
    Zn14    Zn   0.59993   0.50005   0.66629   1.000
    Zn15    Zn   1.00000   0.99999   0.99999   1.000
    Zn16    Zn   0.50001   0.49999   0.50000   1.000
    H17     H    0.50132   0.39691   0.69736   1.000
    H18     H    0.50151   0.60614   0.97268   1.000
    H19     H    0.99427   0.10688   0.13700   1.000
    Zn20    Zn   0.50003   0.50266   0.83402   1.000
    H21     H    0.00000   0.10308   0.80266   1.000
    H22     H    0.00000   0.89387   0.52734   1.000
    H23     H    0.49429   0.39310   0.36298   1.000
    H24     H    0.49868   0.60309   0.30260   1.000
    H25     H    0.49850   0.39386   0.02733   1.000
    H26     H    0.00573   0.89312   0.86300   1.000
    H27     H    0.99870   0.89692   0.19734   1.000
    H28     H    0.99849   0.10613   0.47267   1.000
    H29     H    0.50574   0.60689   0.63701   1.000
    C30     C    0.83365   0.09558   0.64691   1.000
    C31     C    0.62844   0.36920   0.84742   1.000
    C32     C    0.13827   0.87937   0.02021   1.000
    C33     C    0.36496   0.62653   0.81597   1.000
    C34     C    0.65890   0.60627   0.81575   1.000
    C35     C    0.84122   0.89461   0.01693   1.000
    O36     O    0.56619   0.60876   0.50644   1.000
    O37     O    0.37750   0.44364   0.82143   1.000
    O38     O    0.12202   0.93766   0.65315   1.000
    O39     O    0.34091   0.59255   0.40867   1.000
    C40     C    0.33363   0.40441   0.85300   1.000
    C41     C    0.12847   0.13075   0.65260   1.000
    C42     C    0.63831   0.62062   0.47980   1.000
    C43     C    0.86505   0.87344   0.68403   1.000
    C44     C    0.15888   0.89374   0.68426   1.000
    C45     C    0.34120   0.60540   0.48303   1.000
    C46     C    0.16636   0.90442   0.35309   1.000
    C47     C    0.37155   0.63079   0.15258   1.000
    C48     C    0.86174   0.12063   0.97900   1.000
    C49     C    0.63504   0.37347   0.18404   1.000
    C50     C    0.34111   0.39373   0.18425   1.000
    C51     C    0.15879   0.10539   0.98300   1.000
    C52     C    0.66638   0.59560   0.14690   1.000
    C53     C    0.87156   0.86924   0.34740   1.000
    C54     C    0.36169   0.37939   0.52020   1.000
    C55     C    0.13495   0.12657   0.31598   1.000
    C56     C    0.84113   0.10625   0.31574   1.000
    C57     C    0.65881   0.39459   0.51696   1.000
    O58     O    0.50062   0.45549   0.71116   1.000
    O59     O    0.50001   0.54726   0.95647   1.000
    O60     O    0.99693   0.04819   0.12198   1.000
    O61     O    0.33748   0.58903   0.74476   1.000
    O62     O    0.16648   0.91892   0.09076   1.000
    O63     O    0.83267   0.08224   0.57230   1.000
    O64     O    0.56275   0.39061   0.81889   1.000
    O65     O    0.43585   0.61272   0.84318   1.000
    O66     O    0.87833   0.93888   0.98647   1.000
    O67     O    0.65634   0.40419   0.91878   1.000
    O68     O    0.06615   0.89126   0.99358   1.000
    O69     O    0.87753   0.05634   0.67857   1.000
    O70     O    0.62202   0.56237   0.84686   1.000
    O71     O    0.84092   0.90746   0.09130   1.000
    O72     O    0.65949   0.59248   0.74126   1.000
    O73     O    0.00000   0.04450   0.78885   1.000
    O74     O    0.00000   0.95275   0.54353   1.000
    O75     O    0.49693   0.45180   0.37801   1.000
    O76     O    0.83755   0.91096   0.75522   1.000
    O77     O    0.66650   0.58110   0.40924   1.000
    O78     O    0.33265   0.41776   0.92764   1.000
    O79     O    0.06274   0.10939   0.68110   1.000
    O80     O    0.93593   0.88728   0.65681   1.000
    O81     O    0.37832   0.56112   0.51350   1.000
    O82     O    0.15641   0.09571   0.58126   1.000
    O83     O    0.15948   0.90751   0.75874   1.000
    O84     O    0.49938   0.54451   0.28884   1.000
    O85     O    0.50000   0.45274   0.04350   1.000
    O86     O    0.00308   0.95182   0.87802   1.000
    O87     O    0.66252   0.41097   0.25520   1.000
    O88     O    0.83353   0.08110   0.90924   1.000
    O89     O    0.16734   0.91775   0.42763   1.000
    O90     O    0.43726   0.60940   0.18111   1.000
    O91     O    0.56415   0.38729   0.15682   1.000
    O92     O    0.12168   0.06112   0.01352   1.000
    O93     O    0.34364   0.59578   0.08122   1.000
    O94     O    0.93386   0.10875   0.00642   1.000
    O95     O    0.12249   0.94367   0.32143   1.000
    O96     O    0.37798   0.43764   0.15314   1.000
    O97     O    0.15909   0.09253   0.90869   1.000
    O98     O    0.34052   0.40751   0.25873   1.000
    O99     O    0.99938   0.95550   0.21115   1.000
    O100    O    0.99999   0.04725   0.45647   1.000
    O101    O    0.50309   0.54820   0.62190   1.000
    O102    O    0.16245   0.08906   0.24478   1.000
    O103    O    0.33351   0.41892   0.59076   1.000
    O104    O    0.66736   0.58224   0.07235   1.000
    O105    O    0.93727   0.89062   0.31888   1.000
    O106    O    0.06407   0.11273   0.34319   1.000
    O107    O    0.62168   0.43887   0.48649   1.000
    O108    O    0.84363   0.90427   0.41875   1.000
    O109    O    0.43382   0.39124   0.49356   1.000
    O110    O    0.62250   0.55637   0.17857   1.000
    O111    O    0.87800   0.06235   0.34685   1.000
    O112    O    0.65910   0.40743   0.59132   1.000
    O113    O    0.84053   0.09247   0.24120   1.000
    Og114   Og   0.81502   0.11839   0.66404   1.000
    Og115   Og   0.64542   0.34509   0.83022   1.000
    Og116   Og   0.15782   0.85759   0.00274   1.000
    Og117   Og   0.34550   0.64838   0.83350   1.000
    Og118   Og   0.67474   0.63104   0.83297   1.000
    Og119   Og   0.82516   0.87005   0.99960   1.000
    Og120   Og   0.31500   0.38160   0.83587   1.000
    Og121   Og   0.14545   0.15486   0.66980   1.000
    Og122   Og   0.65787   0.64239   0.49727   1.000
    Og123   Og   0.84560   0.85158   0.66650   1.000
    Og124   Og   0.17472   0.86897   0.66704   1.000
    Og125   Og   0.32514   0.62996   0.50037   1.000
    Og126   Og   0.18499   0.88161   0.33593   1.000
    Og127   Og   0.35457   0.65490   0.16978   1.000
    Og128   Og   0.84219   0.14241   0.99673   1.000
    Og129   Og   0.65450   0.35162   0.16650   1.000
    Og130   Og   0.32527   0.36896   0.16683   1.000
    Og131   Og   0.17485   0.12995   0.00035   1.000
    Og132   Og   0.68500   0.61841   0.16406   1.000
    Og133   Og   0.85458   0.84513   0.33020   1.000
    Og134   Og   0.34213   0.35762   0.50273   1.000
    Og135   Og   0.15439   0.14843   0.33349   1.000
    Og136   Og   0.82528   0.13102   0.33296   1.000
    Og137   Og   0.67486   0.37003   0.49962   1.000
loop_
    _geom_bond_atom_site_label_1
    _geom_bond_atom_site_label_2
    _geom_bond_distance
    _geom_bond_site_symmetry_2
    _ccdc_geom_bond_type
    Zn9    O85       2.04544      .   S
    Zn9    O93       1.93626      .   S
    Zn9    O78       1.93727  1_554   S
    O94    C48       1.27175  1_554   S
    O94    Zn15      2.15124  1_544   S
    O92    C51       1.26282  1_554   S
    O92    Zn15      2.13772  1_444   S
    C35    O71       1.29322      .   S
    C35    O66       1.26208  1_554   S
    C32    O62       1.29104      .   S
    C32    O68       1.26518  1_554   S
    H25    O85       0.97509      .   S
    O104   C52       1.29461      .   S
    O104   Zn1       1.93717  1_554   S
    O93    C47       1.29083      .   S
    O62    Zn0       1.93952  1_565   S
    O71    Zn2       1.92875  1_565   S
    O60    H19       0.97484      .   S
    O60    Zn2       2.03863      .   S
    C52    O110      1.26056      .   S
    C47    O90       1.26401      .   S
    O96    Zn7       2.13143      .   S
    O96    C50       1.26327      .   S
    O91    Zn7       2.14347      .   S
    O91    C49       1.26485      .   S
    Zn7    O110      2.13341      .   S
    Zn7    O90       2.13769      .   S
    Zn2    O99       2.03579  1_545   S
    Zn2    O113      1.93050      .   S
    Zn0    O102      1.94000      .   S
    C49    O87       1.29077      .   S
    C50    O98       1.29170      .   S
    H27    O99       0.97502      .   S
    O113   C56       1.29276      .   S
    O102   C55       1.29156      .   S
    O87    Zn4       1.94043      .   S
    O98    Zn6       1.93048      .   S
    O84    H24       0.97514      .   S
    O84    Zn4       2.03651      .   S
    C56    O111      1.26321      .   S
    C55    O106      1.26480      .   S
    O105   Zn11      2.13713  1_565   S
    O105   C53       1.26400      .   S
    O95    Zn11      2.13289  1_465   S
    O95    C46       1.26056      .   S
    Zn4    O77       1.93974      .   S
    Zn6    O75       2.03815      .   S
    Zn6    O39       1.92949      .   S
    Zn11   O106      2.14359  1_655   S
    Zn11   O111      2.13092      .   S
    C53    O108      1.29082      .   S
    C46    O89       1.29452      .   S
    H23    O75       0.97482      .   S
    O39    C45       1.29308      .   S
    O77    C42       1.29102      .   S
    O108   Zn13      1.93629      .   S
    O89    Zn5       1.93707  1_565   S
    O100   H28       0.97503      .   S
    O100   Zn13      2.04532  1_545   S
    C42    O36       1.26517      .   S
    C45    O81       1.26227      .   S
    O107   Zn16      2.13759      .   S
    O107   C57       1.26225      .   S
    O109   Zn16      2.15161      .   S
    O109   C54       1.26519      .   S
    Zn13   O63       1.93658  1_565   S
    Zn16   O36       2.15170      .   S
    Zn16   O81       2.13764      .   S
    Zn5    O74       2.04557  1_545   S
    Zn5    O82       1.93632      .   S
    C57    O112      1.29309      .   S
    C54    O103      1.29102      .   S
    H22    O74       0.97477      .   S
    O63    C30       1.29576      .   S
    O82    C41       1.29078      .   S
    O103   Zn12      1.93973      .   S
    O112   Zn14      1.92947      .   S
    O101   H29       0.97465      .   S
    O101   Zn14      2.03901      .   S
    C30    O69       1.26050      .   S
    C41    O79       1.26385      .   S
    O38    Zn3       2.13160      .   S
    O38    C44       1.26330      .   S
    O80    Zn3       2.14326  1_655   S
    O80    C43       1.26488      .   S
    Zn3    O69       2.13230  1_465   S
    Zn3    O79       2.13759  1_565   S
    Zn14   O72       1.93049      .   S
    Zn12   O58       2.03654      .   S
    Zn12   O61       1.94008      .   S
    C43    O76       1.29139      .   S
    C44    O83       1.29171      .   S
    H17    O58       0.97501      .   S
    O72    C34       1.29183      .   S
    O61    C33       1.29150      .   S
    O76    Zn8       1.94009      .   S
    O83    Zn10      1.93022      .   S
    O73    H21       0.97496      .   S
    O73    Zn8       2.02913  1_445   S
    C34    O70       1.26317      .   S
    C33    O65       1.26477      .   S
    O64    Zn20      2.13764      .   S
    O64    C31       1.26396      .   S
    O37    Zn20      2.13341      .   S
    O37    C40       1.25940      .   S
    Zn8    O88       1.93953  1_565   S
    Zn10   O86       2.03801      .   S
    Zn10   O97       1.92947  1_565   S
    Zn20   O65       2.14349      .   S
    Zn20   O70       2.13138      .   S
    C31    O67       1.29072      .   S
    C40    O78       1.29626      .   S
    H26    O86       0.97483      .   S
    O97    C51       1.29212      .   S
    O88    C48       1.27950      .   S
    O67    Zn1       1.93638      .   S
    O59    H18       0.97501      .   S
    O59    Zn1       2.04587      .   S
    O66    Zn15      2.13735      .   S
    O68    Zn15      2.15093  1_455   S
    O58    Zn20      2.08330      .   S
    O58    Zn14      2.03673      .   S
    O59    Zn20      2.07703      .   S
    O59    Zn9       2.05034  1_556   S
    O60    Zn0       2.04742  1_655   S
    O60    Zn15      2.06907  1_544   S
    O73    Zn3       2.08328  1_545   S
    O73    Zn10      2.04383  1_545   S
    O74    Zn3       2.07719      .   S
    O74    Zn13      2.05012  1_455   S
    O75    Zn4       2.04775      .   S
    O75    Zn16      2.06907      .   S
    O84    Zn6       2.03673      .   S
    O84    Zn7       2.08313      .   S
    O85    Zn1       2.04983  1_554   S
    O85    Zn7       2.07771      .   S
    O86    Zn8       2.04745  1_455   S
    O86    Zn15      2.06873  1_455   S
    O99    Zn0       2.03648  1_665   S
    O99    Zn11      2.08330  1_565   S
    O100   Zn5       2.05043  1_655   S
    O100   Zn11      2.07719      .   S
    O101   Zn12      2.04858      .   S
    O101   Zn16      2.06755      .   S
    C30    Og114     0.49946      .   S
    C31    Og115     0.49970      .   S
    C32    Og116     0.49977      .   S
    C33    Og117     0.49996      .   S
    C34    Og118     0.49831      .   S
    C35    Og119     0.49820  1_554   S
    C40    Og120     0.49944      .   S
    C41    Og121     0.49970      .   S
    C42    Og122     0.49982      .   S
    C43    Og123     0.49998      .   S
    C44    Og124     0.49832      .   S
    C45    Og125     0.49823      .   S
    C46    Og126     0.49962      .   S
    C47    Og127     0.49971      .   S
    C48    Og128     0.50145      .   S
    C49    Og129     0.49998      .   S
    C50    Og130     0.49941      .   S
    C51    Og131     0.49831  1_556   S
    C52    Og132     0.49962      .   S
    C53    Og133     0.49971      .   S
    C54    Og134     0.49982      .   S
    C55    Og135     0.49981      .   S
    C56    Og136     0.49830      .   S
    C57    Og137     0.49823      .   S
