# CIF file generated by openbabel 2.4.90, see http://openbabel.sf.net
data_I
_chemical_name_common ''
_cell_length_a 15.44
_cell_length_b 17.79
_cell_length_c 18.318
_cell_angle_alpha 112.232
_cell_angle_beta 90.004
_cell_angle_gamma 89.996
_space_group_name_H-M_alt 'P 1'
_space_group_name_Hall 'P 1'
loop_
    _symmetry_equiv_pos_as_xyz
    x,y,z
loop_
    _atom_site_label
    _atom_site_type_symbol
    _atom_site_fract_x
    _atom_site_fract_y
    _atom_site_fract_z
    _atom_site_occupancy
    C0      C    0.83365   0.09558   0.64691   1.000
    C1      C    0.62844   0.36920   0.84742   1.000
    C2      C    0.13827   0.87937   0.02021   1.000
    C3      C    0.36496   0.62653   0.81597   1.000
    C4      C    0.65890   0.60627   0.81575   1.000
    C5      C    0.84122   0.89461   0.01693   1.000
    C6      C    0.33363   0.40441   0.85300   1.000
    C7      C    0.12847   0.13075   0.65260   1.000
    C8      C    0.63831   0.62062   0.47980   1.000
    C9      C    0.86505   0.87344   0.68403   1.000
    C10     C    0.15888   0.89374   0.68426   1.000
    C11     C    0.34120   0.60540   0.48303   1.000
    C12     C    0.16636   0.90442   0.35309   1.000
    C13     C    0.37155   0.63079   0.15258   1.000
    C14     C    0.86174   0.12063   0.97900   1.000
    C15     C    0.63504   0.37347   0.18404   1.000
    C16     C    0.34111   0.39373   0.18425   1.000
    C17     C    0.15879   0.10539   0.98300   1.000
    C18     C    0.66638   0.59560   0.14690   1.000
    C19     C    0.87156   0.86924   0.34740   1.000
    C20     C    0.36169   0.37939   0.52020   1.000
    C21     C    0.13495   0.12657   0.31598   1.000
    C22     C    0.84113   0.10625   0.31574   1.000
    C23     C    0.65881   0.39459   0.51696   1.000
