# CIF file generated by openbabel 2.4.90, see http://openbabel.sf.net
data_I
_chemical_name_common ''
_cell_length_a 15.44
_cell_length_b 17.79
_cell_length_c 18.318
_cell_angle_alpha 112.232
_cell_angle_beta 90.004
_cell_angle_gamma 89.996
_space_group_name_H-M_alt 'P 1'
_space_group_name_Hall 'P 1'
loop_
    _symmetry_equiv_pos_as_xyz
    x,y,z
loop_
    _atom_site_label
    _atom_site_type_symbol
    _atom_site_fract_x
    _atom_site_fract_y
    _atom_site_fract_z
    _atom_site_occupancy
    Zr0     Zr   0.50003   0.50266   0.83402   1.000
    Zr1     Zr   0.09665   0.00295   0.16680   1.000
    Zr2     Zr   0.59908   0.49677   0.99659   1.000
    Zr3     Zr   0.90009   0.00000   0.16628   1.000
    Zr4     Zr   0.00000   0.99736   0.66599   1.000
    Zr5     Zr   0.59666   0.49706   0.33320   1.000
    Zr6     Zr   0.09908   0.00320   0.50343   1.000
    Zr7     Zr   0.40008   0.49994   0.33370   1.000
    Zr8     Zr   0.49998   0.49735   0.16599   1.000
    Zr9     Zr   0.90337   0.99707   0.83320   1.000
    Zr10    Zr   0.40093   0.50322   0.00342   1.000
    Zr11    Zr   0.09992   0.99993   0.83371   1.000
    Zr12    Zr   0.99997   0.00264   0.33401   1.000
    Zr13    Zr   0.40336   0.50295   0.66680   1.000
    Zr14    Zr   0.90094   0.99680   0.49657   1.000
    Zr15    Zr   0.59993   0.50005   0.66629   1.000
    Zr16    Zr   1.00000   0.99999   0.99999   1.000
    Zr17    Zr   0.50001   0.49999   0.50000   1.000
    Zr18    Zr   0.50132   0.39691   0.69736   1.000
    Zr19    Zr   0.50151   0.60614   0.97268   1.000
    Zr20    Zr   0.99427   0.10688   0.13700   1.000
    Zr21    Zr   0.00000   0.10308   0.80266   1.000
    Zr22    Zr   0.00000   0.89387   0.52734   1.000
    Zr23    Zr   0.49429   0.39310   0.36298   1.000
    Zr24    Zr   0.49868   0.60309   0.30260   1.000
    Zr25    Zr   0.49850   0.39386   0.02733   1.000
    Zr26    Zr   0.00573   0.89312   0.86300   1.000
    Zr27    Zr   0.99870   0.89692   0.19734   1.000
    Zr28    Zr   0.99849   0.10613   0.47267   1.000
    Zr29    Zr   0.50574   0.60689   0.63701   1.000
    Zr30    Zr   0.83365   0.09558   0.64691   1.000
    Zr31    Zr   0.62844   0.36920   0.84742   1.000
    Zr32    Zr   0.13827   0.87937   0.02021   1.000
    Zr33    Zr   0.36496   0.62653   0.81597   1.000
    Zr34    Zr   0.65890   0.60627   0.81575   1.000
    Zr35    Zr   0.84122   0.89461   0.01693   1.000
    Zr36    Zr   0.33363   0.40441   0.85300   1.000
    Zr37    Zr   0.12847   0.13075   0.65260   1.000
    Zr38    Zr   0.63831   0.62062   0.47980   1.000
    Zr39    Zr   0.86505   0.87344   0.68403   1.000
    Zr40    Zr   0.15888   0.89374   0.68426   1.000
    Zr41    Zr   0.34120   0.60540   0.48303   1.000
    Zr42    Zr   0.16636   0.90442   0.35309   1.000
    Zr43    Zr   0.37155   0.63079   0.15258   1.000
    Zr44    Zr   0.86174   0.12063   0.97900   1.000
    Zr45    Zr   0.63504   0.37347   0.18404   1.000
    Zr46    Zr   0.34111   0.39373   0.18425   1.000
    Zr47    Zr   0.15879   0.10539   0.98300   1.000
    Zr48    Zr   0.66638   0.59560   0.14690   1.000
    Zr49    Zr   0.87156   0.86924   0.34740   1.000
    Zr50    Zr   0.36169   0.37939   0.52020   1.000
    Zr51    Zr   0.13495   0.12657   0.31598   1.000
    Zr52    Zr   0.84113   0.10625   0.31574   1.000
    Zr53    Zr   0.65881   0.39459   0.51696   1.000
    Zr54    Zr   0.50062   0.45549   0.71116   1.000
    Zr55    Zr   0.50001   0.54726   0.95647   1.000
    Zr56    Zr   0.99693   0.04819   0.12198   1.000
    Zr57    Zr   0.33748   0.58903   0.74476   1.000
    Zr58    Zr   0.16648   0.91892   0.09076   1.000
    Zr59    Zr   0.83267   0.08224   0.57230   1.000
    Zr60    Zr   0.56275   0.39061   0.81889   1.000
    Zr61    Zr   0.43585   0.61272   0.84318   1.000
    Zr62    Zr   0.87833   0.93888   0.98647   1.000
    Zr63    Zr   0.65634   0.40419   0.91878   1.000
    Zr64    Zr   0.06615   0.89126   0.99358   1.000
    Zr65    Zr   0.87753   0.05634   0.67857   1.000
    Zr66    Zr   0.62202   0.56237   0.84686   1.000
    Zr67    Zr   0.84092   0.90746   0.09130   1.000
    Zr68    Zr   0.65949   0.59248   0.74126   1.000
    Zr69    Zr   0.00000   0.04450   0.78885   1.000
    Zr70    Zr   0.00000   0.95275   0.54353   1.000
    Zr71    Zr   0.49693   0.45180   0.37801   1.000
    Zr72    Zr   0.83755   0.91096   0.75522   1.000
    Zr73    Zr   0.66650   0.58110   0.40924   1.000
    Zr74    Zr   0.33265   0.41776   0.92764   1.000
    Zr75    Zr   0.06274   0.10939   0.68110   1.000
    Zr76    Zr   0.93593   0.88728   0.65681   1.000
    Zr77    Zr   0.37832   0.56112   0.51350   1.000
    Zr78    Zr   0.15641   0.09571   0.58126   1.000
    Zr79    Zr   0.56619   0.60876   0.50644   1.000
    Zr80    Zr   0.37750   0.44364   0.82143   1.000
    Zr81    Zr   0.12202   0.93766   0.65315   1.000
    Zr82    Zr   0.34091   0.59255   0.40867   1.000
    Zr83    Zr   0.15948   0.90751   0.75874   1.000
    Zr84    Zr   0.49938   0.54451   0.28884   1.000
    Zr85    Zr   0.50000   0.45274   0.04350   1.000
    Zr86    Zr   0.00308   0.95182   0.87802   1.000
    Zr87    Zr   0.66252   0.41097   0.25520   1.000
    Zr88    Zr   0.83353   0.08110   0.90924   1.000
    Zr89    Zr   0.16734   0.91775   0.42763   1.000
    Zr90    Zr   0.43726   0.60940   0.18111   1.000
    Zr91    Zr   0.56415   0.38729   0.15682   1.000
    Zr92    Zr   0.12168   0.06112   0.01352   1.000
    Zr93    Zr   0.34364   0.59578   0.08122   1.000
    Zr94    Zr   0.93386   0.10875   0.00642   1.000
    Zr95    Zr   0.12249   0.94367   0.32143   1.000
    Zr96    Zr   0.37798   0.43764   0.15314   1.000
    Zr97    Zr   0.15909   0.09253   0.90869   1.000
    Zr98    Zr   0.34052   0.40751   0.25873   1.000
    Zr99    Zr   0.99938   0.95550   0.21115   1.000
    Zr100   Zr   0.99999   0.04725   0.45647   1.000
    Zr101   Zr   0.50309   0.54820   0.62190   1.000
    Zr102   Zr   0.16245   0.08906   0.24478   1.000
    Zr103   Zr   0.33351   0.41892   0.59076   1.000
    Zr104   Zr   0.66736   0.58224   0.07235   1.000
    Zr105   Zr   0.93727   0.89062   0.31888   1.000
    Zr106   Zr   0.06407   0.11273   0.34319   1.000
    Zr107   Zr   0.62168   0.43887   0.48649   1.000
    Zr108   Zr   0.84363   0.90427   0.41875   1.000
    Zr109   Zr   0.43382   0.39124   0.49356   1.000
    Zr110   Zr   0.62250   0.55637   0.17857   1.000
    Zr111   Zr   0.87800   0.06235   0.34685   1.000
    Zr112   Zr   0.65910   0.40743   0.59132   1.000
    Zr113   Zr   0.84053   0.09247   0.24120   1.000
    O114    O    0.45046   0.47798   0.02346   1.000
    O115    O    0.37229   0.54950   0.04232   1.000
    O116    O    0.36679   0.46049   0.96553   1.000
    O117    O    0.89780   0.11469   0.99271   1.000
    O118    O    0.96693   0.05437   0.00321   1.000
    O119    O    0.14023   0.08325   0.99826   1.000
    O120    O    0.06084   0.03055   0.00676   1.000
    O121    O    0.84107   0.90104   0.05412   1.000
    O122    O    0.85978   0.91674   0.00170   1.000
    O123    O    0.15238   0.89915   0.05548   1.000
    O124    O    0.10221   0.88531   0.00690   1.000
    O125    O    0.49925   0.42330   0.03541   1.000
    O126    O    0.66687   0.58892   0.10963   1.000
    O127    O    0.63322   0.53950   0.03447   1.000
    O128    O    0.35760   0.61329   0.11690   1.000
    O129    O    0.13156   0.96093   0.12878   1.000
    O130    O    0.87051   0.95373   0.12879   1.000
    O131    O    0.99560   0.07754   0.12949   1.000
    O132    O    0.94851   0.02409   0.14413   1.000
    O133    O    0.64444   0.57598   0.16273   1.000
    O134    O    0.40441   0.62009   0.16684   1.000
    O135    O    0.43898   0.46749   0.15957   1.000
    O136    O    0.35955   0.41568   0.16869   1.000
    O137    O    0.53207   0.44232   0.16140   1.000
    O138    O    0.59960   0.38038   0.17043   1.000
    O139    O    0.56124   0.52686   0.17228   1.000
    O140    O    0.46862   0.55337   0.17355   1.000
    O141    O    0.94973   0.97775   0.18871   1.000
    O142    O    0.87031   0.04623   0.20374   1.000
    O143    O    0.12955   0.04600   0.20579   1.000
    O144    O    0.64878   0.39222   0.21962   1.000
    O145    O    0.34082   0.40062   0.22149   1.000
    O146    O    0.99904   0.92621   0.20424   1.000
    O147    O    0.84083   0.09936   0.27847   1.000
    O148    O    0.14870   0.10782   0.28038   1.000
    O149    O    0.62959   0.45401   0.29420   1.000
    O150    O    0.37030   0.45373   0.29622   1.000
    O151    O    0.49903   0.57380   0.29572   1.000
    O152    O    0.54802   0.52078   0.31102   1.000
    O153    O    0.85956   0.08430   0.33130   1.000
    O154    O    0.09951   0.11965   0.32959   1.000
    O155    O    0.96862   0.94663   0.32645   1.000
    O156    O    0.90441   0.87993   0.33314   1.000
    O157    O    0.06123   0.97315   0.32772   1.000
    O158    O    0.14443   0.92404   0.33726   1.000
    O159    O    0.63158   0.53908   0.37122   1.000
    O160    O    0.44850   0.47587   0.35586   1.000
    O161    O    0.37049   0.54625   0.37118   1.000
    O162    O    0.03202   0.05769   0.33860   1.000
    O163    O    0.93898   0.03249   0.34043   1.000
    O164    O    0.85759   0.88675   0.38307   1.000
    O165    O    0.16685   0.91109   0.39036   1.000
    O166    O    0.49561   0.42245   0.37050   1.000
    O167    O    0.34105   0.59898   0.44585   1.000
    O168    O    0.65241   0.60086   0.44452   1.000
    O169    O    0.87228   0.95053   0.45766   1.000
    O170    O    0.13321   0.96048   0.46553   1.000
    O171    O    0.99924   0.07669   0.46457   1.000
    O172    O    0.95047   0.02202   0.47652   1.000
    O173    O    0.60225   0.61469   0.49312   1.000
    O174    O    0.35976   0.58326   0.49827   1.000
    O175    O    0.56084   0.46943   0.49324   1.000
    O176    O    0.64024   0.41673   0.50173   1.000
    O177    O    0.46691   0.44562   0.49678   1.000
    O178    O    0.39775   0.38531   0.50688   1.000
    O179    O    0.86681   0.03952   0.53443   1.000
    O180    O    0.53310   0.55438   0.50322   1.000
    O181    O    0.43916   0.53055   0.50675   1.000
    O182    O    0.04954   0.97797   0.52348   1.000
    O183    O    0.12775   0.04945   0.54234   1.000
    O184    O    0.65895   0.40101   0.55414   1.000
    O185    O    0.34760   0.39915   0.55548   1.000
    O186    O    0.00000   0.92331   0.53544   1.000
    O187    O    0.83316   0.08891   0.60961   1.000
    O188    O    0.14244   0.11323   0.61693   1.000
    O189    O    0.36843   0.46093   0.62878   1.000
    O190    O    0.62952   0.45374   0.62881   1.000
    O191    O    0.50441   0.57754   0.62945   1.000
    O192    O    0.55151   0.52412   0.64410   1.000
    O193    O    0.85559   0.07596   0.66274   1.000
    O194    O    0.09560   0.12007   0.66685   1.000
    O195    O    0.06101   0.96751   0.65957   1.000
    O196    O    0.14045   0.91570   0.66870   1.000
    O197    O    0.96796   0.94232   0.66140   1.000
    O198    O    0.90049   0.88036   0.67042   1.000
    O199    O    0.93876   0.02685   0.67228   1.000
    O200    O    0.03137   0.05338   0.67355   1.000
    O201    O    0.62971   0.54626   0.70378   1.000
    O202    O    0.45199   0.47922   0.68898   1.000
    O203    O    0.37042   0.54599   0.70578   1.000
    O204    O    0.85130   0.89220   0.71963   1.000
    O205    O    0.15918   0.90063   0.72150   1.000
    O206    O    0.50097   0.42620   0.70426   1.000
    O207    O    0.65920   0.59937   0.77851   1.000
    O208    O    0.35122   0.60778   0.78036   1.000
    O209    O    0.87046   0.95401   0.79421   1.000
    O210    O    0.12970   0.95372   0.79622   1.000
    O211    O    0.00000   0.07379   0.79576   1.000
    O212    O    0.95168   0.02079   0.81103   1.000
    O213    O    0.64046   0.58432   0.83131   1.000
    O214    O    0.40040   0.61962   0.82957   1.000
    O215    O    0.53139   0.44664   0.82645   1.000
    O216    O    0.59560   0.37991   0.83316   1.000
    O217    O    0.43877   0.47315   0.82773   1.000
    O218    O    0.35556   0.42402   0.83722   1.000
    O219    O    0.86845   0.03908   0.87122   1.000
    O220    O    0.05150   0.97587   0.85587   1.000
    O221    O    0.12951   0.04623   0.87120   1.000
    O222    O    0.46794   0.55769   0.83860   1.000
    O223    O    0.56102   0.53252   0.84044   1.000
    O224    O    0.64239   0.38669   0.88310   1.000
    O225    O    0.33314   0.41108   0.89032   1.000
    O226    O    0.00440   0.92247   0.87051   1.000
    O227    O    0.15894   0.09896   0.94585   1.000
    O228    O    0.84763   0.10087   0.94412   1.000
    O229    O    0.62771   0.45048   0.95769   1.000
    O230    O    0.50076   0.57670   0.96457   1.000
    O231    O    0.54954   0.52201   0.97653   1.000
    O232    O    0.93917   0.96944   0.99323   1.000
    O233    O    0.03307   0.94562   0.99679   1.000
    O234    O    0.50033   0.47907   0.77259   1.000
    O235    O    0.55028   0.47777   0.68873   1.000
    O236    O    0.50002   0.52496   0.89525   1.000
    O237    O    0.45047   0.52524   0.97994   1.000
    O238    O    0.04679   0.02557   0.14439   1.000
    O239    O    0.99847   0.02409   0.06099   1.000
    O240    O    0.00000   0.02093   0.72742   1.000
    O241    O    0.04996   0.02222   0.81128   1.000
    O242    O    0.00000   0.97506   0.60476   1.000
    O243    O    0.95047   0.97477   0.52005   1.000
    O244    O    0.54679   0.47443   0.35561   1.000
    O245    O    0.49847   0.47590   0.43900   1.000
    O246    O    0.44973   0.52223   0.31127   1.000
    O247    O    0.49968   0.52093   0.22742   1.000
    O248    O    0.54954   0.47476   0.02005   1.000
    O249    O    0.49999   0.47504   0.10475   1.000
    O250    O    0.95322   0.97444   0.85561   1.000
    O251    O    0.00154   0.97590   0.93901   1.000
    O252    O    0.04801   0.97922   0.18898   1.000
    O253    O    0.99967   0.97907   0.27258   1.000
    O254    O    0.04954   0.02522   0.47995   1.000
    O255    O    0.99998   0.02494   0.39524   1.000
    O256    O    0.45322   0.52557   0.64435   1.000
    O257    O    0.50155   0.52410   0.56095   1.000
    N258    N    0.74954   0.75088   0.91617   1.000
    O259    O    0.78334   0.80432   0.95355   1.000
    O260    O    0.71610   0.69715   0.87887   1.000
    N261    N    0.77198   0.72999   0.24713   1.000
    O262    O    0.80903   0.78154   0.28436   1.000
    O263    O    0.73315   0.67990   0.20988   1.000
    N264    N    0.74826   0.24697   0.08180   1.000
    O265    O    0.79034   0.20014   0.04370   1.000
    O266    O    0.70624   0.29383   0.11977   1.000
    N267    N    0.22804   0.27001   0.75286   1.000
    O268    O    0.19099   0.21846   0.71563   1.000
    O269    O    0.26686   0.32010   0.79009   1.000
    N270    N    0.75184   0.74693   0.58181   1.000
    O271    O    0.70974   0.70010   0.54391   1.000
    O272    O    0.79386   0.79379   0.61977   1.000
    N273    N    0.72803   0.22996   0.74713   1.000
    O274    O    0.69097   0.28150   0.78437   1.000
    O275    O    0.76687   0.17988   0.70987   1.000
    N276    N    0.75047   0.25086   0.41617   1.000
    O277    O    0.71668   0.30430   0.45356   1.000
    O278    O    0.78392   0.19713   0.37887   1.000
    N279    N    0.24953   0.74913   0.58382   1.000
    O280    O    0.21609   0.80286   0.62112   1.000
    O281    O    0.28332   0.69569   0.54643   1.000
    N282    N    0.25174   0.75302   0.91821   1.000
    O283    O    0.20966   0.79986   0.95611   1.000
    O284    O    0.29376   0.70616   0.88024   1.000
    N285    N    0.24816   0.25309   0.41819   1.000
    O286    O    0.29025   0.29991   0.45609   1.000
    O287    O    0.20614   0.20622   0.38021   1.000
    N288    N    0.25046   0.24913   0.08375   1.000
    O289    O    0.21667   0.19568   0.04639   1.000
    O290    O    0.28390   0.30285   0.12094   1.000
    N291    N    0.27197   0.77003   0.25285   1.000
    O292    O    0.30903   0.71849   0.21561   1.000
    O293    O    0.23313   0.82012   0.29010   1.000
loop_
    _geom_bond_atom_site_label_1
    _geom_bond_atom_site_label_2
    _geom_bond_distance
    _geom_bond_site_symmetry_2
    _ccdc_geom_bond_type
    Zr10   O114      1.02272      .   S
    Zr85   O114      1.02272      .   S
    Zr10   O115      0.96813      .   S
    Zr93   O115      0.96813      .   S
    Zr10   O116      0.96864  1_554   S
    Zr74   O116      0.96864      .   S
    Zr94   O117      0.63587  1_554   S
    Zr44   O117      0.63587      .   S
    Zr94   O118      1.07562      .   S
    Zr16   O118      1.07562  1_566   S
    Zr92   O119      0.63141  1_554   S
    Zr47   O119      0.63141      .   S
    Zr92   O120      1.06886      .   S
    Zr16   O120      1.06886  1_666   S
    Zr35   O121      0.64661      .   S
    Zr67   O121      0.64661      .   S
    Zr35   O122      0.63104      .   S
    Zr62   O122      0.63104  1_556   S
    Zr32   O123      0.64552      .   S
    Zr58   O123      0.64552      .   S
    Zr32   O124      0.63259      .   S
    Zr64   O124      0.63259  1_556   S
    Zr25   O125      0.48754      .   S
    Zr85   O125      0.48754      .   S
    Zr104  O126      0.64731      .   S
    Zr48   O126      0.64731      .   S
    Zr104  O127      0.96858      .   S
    Zr2    O127      0.96858  1_556   S
    Zr93   O128      0.64541      .   S
    Zr43   O128      0.64541      .   S
    Zr58   O129      0.96976      .   S
    Zr1    O129      0.96976  1_545   S
    Zr67   O130      0.96437      .   S
    Zr3    O130      0.96437  1_545   S
    Zr56   O131      0.48742      .   S
    Zr20   O131      0.48742      .   S
    Zr56   O132      1.01931      .   S
    Zr3    O132      1.01931      .   S
    Zr48   O133      0.63028      .   S
    Zr110  O133      0.63028      .   S
    Zr43   O134      0.63200      .   S
    Zr90   O134      0.63200      .   S
    Zr96   O135      1.06572      .   S
    Zr8    O135      1.06572      .   S
    Zr96   O136      0.63163      .   S
    Zr46   O136      0.63163      .   S
    Zr91   O137      1.07173      .   S
    Zr8    O137      1.07173      .   S
    Zr91   O138      0.63243      .   S
    Zr45   O138      0.63243      .   S
    Zr8    O139      1.06670      .   S
    Zr110  O139      1.06670      .   S
    Zr8    O140      1.06885      .   S
    Zr90   O140      1.06885      .   S
    Zr3    O141      1.01789  1_545   S
    Zr99   O141      1.01789      .   S
    Zr3    O142      0.96525      .   S
    Zr113  O142      0.96525      .   S
    Zr1    O143      0.97000      .   S
    Zr102  O143      0.97000      .   S
    Zr45   O144      0.64538      .   S
    Zr87   O144      0.64538      .   S
    Zr46   O145      0.64585      .   S
    Zr98   O145      0.64585      .   S
    Zr27   O146      0.48751      .   S
    Zr99   O146      0.48751      .   S
    Zr113  O147      0.64638      .   S
    Zr52   O147      0.64638      .   S
    Zr102  O148      0.64578      .   S
    Zr51   O148      0.64578      .   S
    Zr87   O149      0.97021      .   S
    Zr5    O149      0.97021      .   S
    Zr98   O150      0.96524      .   S
    Zr7    O150      0.96524      .   S
    Zr84   O151      0.48757      .   S
    Zr24   O151      0.48757      .   S
    Zr84   O152      1.01825      .   S
    Zr5    O152      1.01825      .   S
    Zr52   O153      0.63161      .   S
    Zr111  O153      0.63161      .   S
    Zr51   O154      0.63240      .   S
    Zr106  O154      0.63240      .   S
    Zr105  O155      1.06857      .   S
    Zr12   O155      1.06857  1_545   S
    Zr105  O156      0.63200      .   S
    Zr49   O156      0.63200      .   S
    Zr95   O157      1.06645      .   S
    Zr12   O157      1.06645  1_645   S
    Zr95   O158      0.63028      .   S
    Zr42   O158      0.63028      .   S
    Zr5    O159      0.96987      .   S
    Zr73   O159      0.96987      .   S
    Zr7    O160      1.01908      .   S
    Zr71   O160      1.01908      .   S
    Zr7    O161      0.96474      .   S
    Zr82   O161      0.96474      .   S
    Zr12   O162      1.07180  1_655   S
    Zr106  O162      1.07180      .   S
    Zr12   O163      1.06546      .   S
    Zr111  O163      1.06546      .   S
    Zr49   O164      0.64541      .   S
    Zr108  O164      0.64541      .   S
    Zr42   O165      0.64726      .   S
    Zr89   O165      0.64726      .   S
    Zr23   O166      0.48741      .   S
    Zr71   O166      0.48741      .   S
    Zr82   O167      0.64654      .   S
    Zr41   O167      0.64654      .   S
    Zr73   O168      0.64551      .   S
    Zr38   O168      0.64551      .   S
    Zr108  O169      0.96814      .   S
    Zr14   O169      0.96814      .   S
    Zr89   O170      0.96853      .   S
    Zr6    O170      0.96853  1_545   S
    Zr100  O171      0.48752      .   S
    Zr28   O171      0.48752      .   S
    Zr100  O172      1.02266      .   S
    Zr14   O172      1.02266  1_565   S
    Zr38   O173      0.63259      .   S
    Zr79   O173      0.63259      .   S
    Zr41   O174      0.63114      .   S
    Zr77   O174      0.63114      .   S
    Zr107  O175      1.06880      .   S
    Zr17   O175      1.06880      .   S
    Zr107  O176      0.63113      .   S
    Zr53   O176      0.63113      .   S
    Zr109  O177      1.07581      .   S
    Zr17   O177      1.07581      .   S
    Zr109  O178      0.63259      .   S
    Zr50   O178      0.63259      .   S
    Zr14   O179      0.96829  1_565   S
    Zr59   O179      0.96829      .   S
    Zr17   O180      1.07585      .   S
    Zr79   O180      1.07585      .   S
    Zr17   O181      1.06882      .   S
    Zr77   O181      1.06882      .   S
    Zr6    O182      1.02279  1_545   S
    Zr70   O182      1.02279      .   S
    Zr6    O183      0.96816      .   S
    Zr78   O183      0.96816      .   S
    Zr53   O184      0.64654      .   S
    Zr112  O184      0.64654      .   S
    Zr50   O185      0.64551      .   S
    Zr103  O185      0.64551      .   S
    Zr22   O186      0.48739      .   S
    Zr70   O186      0.48739      .   S
    Zr59   O187      0.64788      .   S
    Zr30   O187      0.64788      .   S
    Zr78   O188      0.64539      .   S
    Zr37   O188      0.64539      .   S
    Zr103  O189      0.96987      .   S
    Zr13   O189      0.96987      .   S
    Zr112  O190      0.96474      .   S
    Zr15   O190      0.96474      .   S
    Zr101  O191      0.48732      .   S
    Zr29   O191      0.48732      .   S
    Zr101  O192      1.01950      .   S
    Zr15   O192      1.01950      .   S
    Zr30   O193      0.63025      .   S
    Zr65   O193      0.63025      .   S
    Zr37   O194      0.63192      .   S
    Zr75   O194      0.63192      .   S
    Zr81   O195      1.06580      .   S
    Zr4    O195      1.06580      .   S
    Zr81   O196      0.63165      .   S
    Zr40   O196      0.63165      .   S
    Zr76   O197      1.07163      .   S
    Zr4    O197      1.07163  1_455   S
    Zr76   O198      0.63244      .   S
    Zr39   O198      0.63244      .   S
    Zr4    O199      1.06615  1_465   S
    Zr65   O199      1.06615      .   S
    Zr4    O200      1.06880  1_565   S
    Zr75   O200      1.06880      .   S
    Zr15   O201      0.96525      .   S
    Zr68   O201      0.96525      .   S
    Zr13   O202      1.01827      .   S
    Zr54   O202      1.01827      .   S
    Zr13   O203      0.97004      .   S
    Zr57   O203      0.97004      .   S
    Zr39   O204      0.64569      .   S
    Zr72   O204      0.64569      .   S
    Zr40   O205      0.64585      .   S
    Zr83   O205      0.64585      .   S
    Zr18   O206      0.48751      .   S
    Zr54   O206      0.48751      .   S
    Zr68   O207      0.64592      .   S
    Zr34   O207      0.64592      .   S
    Zr57   O208      0.64575      .   S
    Zr33   O208      0.64575      .   S
    Zr72   O209      0.97004      .   S
    Zr9    O209      0.97004      .   S
    Zr83   O210      0.96511      .   S
    Zr11   O210      0.96511      .   S
    Zr69   O211      0.48748      .   S
    Zr21   O211      0.48748      .   S
    Zr69   O212      1.01457  1_455   S
    Zr9    O212      1.01457  1_565   S
    Zr34   O213      0.63158      .   S
    Zr66   O213      0.63158      .   S
    Zr33   O214      0.63239      .   S
    Zr61   O214      0.63239      .   S
    Zr60   O215      1.06882      .   S
    Zr0    O215      1.06882      .   S
    Zr60   O216      0.63198      .   S
    Zr31   O216      0.63198      .   S
    Zr80   O217      1.06671      .   S
    Zr0    O217      1.06671      .   S
    Zr80   O218      0.62970      .   S
    Zr36   O218      0.62970      .   S
    Zr9    O219      0.96977  1_565   S
    Zr88   O219      0.96977      .   S
    Zr11   O220      1.01900      .   S
    Zr86   O220      1.01900      .   S
    Zr11   O221      0.96473  1_565   S
    Zr97   O221      0.96473      .   S
    Zr0    O222      1.07174      .   S
    Zr61   O222      1.07174      .   S
    Zr0    O223      1.06569      .   S
    Zr66   O223      1.06569      .   S
    Zr31   O224      0.64536      .   S
    Zr63   O224      0.64536      .   S
    Zr36   O225      0.64813      .   S
    Zr74   O225      0.64813      .   S
    Zr26   O226      0.48741      .   S
    Zr86   O226      0.48741      .   S
    Zr97   O227      0.64606      .   S
    Zr47   O227      0.64606      .   S
    Zr88   O228      0.63975      .   S
    Zr44   O228      0.63975      .   S
    Zr63   O229      0.96819      .   S
    Zr2    O229      0.96819      .   S
    Zr55   O230      0.48751      .   S
    Zr19   O230      0.48751      .   S
    Zr55   O231      1.02294      .   S
    Zr2    O231      1.02294      .   S
    Zr62   O232      1.06868      .   S
    Zr16   O232      1.06868      .   S
    Zr64   O233      1.07547      .   S
    Zr16   O233      1.07547  1_655   S
    Zr54   O234      1.04165      .   S
    Zr0    O234      1.04165      .   S
    Zr54   O235      1.01836      .   S
    Zr15   O235      1.01836      .   S
    Zr55   O236      1.03851      .   S
    Zr0    O236      1.03851      .   S
    Zr55   O237      1.02517      .   S
    Zr10   O237      1.02517  1_554   S
    Zr56   O238      1.02371  1_655   S
    Zr1    O238      1.02371      .   S
    Zr56   O239      1.03453      .   S
    Zr16   O239      1.03453  1_566   S
    Zr69   O240      1.04164      .   S
    Zr4    O240      1.04164  1_565   S
    Zr69   O241      1.02192      .   S
    Zr11   O241      1.02192  1_565   S
    Zr70   O242      1.03860      .   S
    Zr4    O242      1.03860      .   S
    Zr70   O243      1.02506  1_455   S
    Zr14   O243      1.02506      .   S
    Zr71   O244      1.02387      .   S
    Zr5    O244      1.02387      .   S
    Zr71   O245      1.03453      .   S
    Zr17   O245      1.03453      .   S
    Zr84   O246      1.01836      .   S
    Zr7    O246      1.01836      .   S
    Zr84   O247      1.04157      .   S
    Zr8    O247      1.04157      .   S
    Zr85   O248      1.02492      .   S
    Zr2    O248      1.02492  1_556   S
    Zr85   O249      1.03885      .   S
    Zr8    O249      1.03885      .   S
    Zr86   O250      1.02373  1_455   S
    Zr9    O250      1.02373      .   S
    Zr86   O251      1.03437      .   S
    Zr16   O251      1.03437  1_655   S
    Zr99   O252      1.01824  1_655   S
    Zr1    O252      1.01824  1_545   S
    Zr99   O253      1.04165      .   S
    Zr12   O253      1.04165  1_545   S
    Zr100  O254      1.02521  1_655   S
    Zr6    O254      1.02521      .   S
    Zr100  O255      1.03860      .   S
    Zr12   O255      1.03860      .   S
    Zr101  O256      1.02429      .   S
    Zr13   O256      1.02429      .   S
    Zr101  O257      1.03377      .   S
    Zr17   O257      1.03377      .   S
    N258   O259      1.07355      .   S
    Zr35   O259      1.82081  1_554   S
    N258   O260      1.07368      .   S
    Zr34   O260      1.82112      .   S
    N261   O262      1.07707      .   S
    Zr49   O262      1.82661      .   S
    N261   O263      1.07655      .   S
    Zr48   O263      1.82586      .   S
    N264   O265      1.07861      .   S
    Zr44   O265      1.83078  1_556   S
    N264   O266      1.07742      .   S
    Zr45   O266      1.82739      .   S
    N267   O268      1.07704      .   S
    Zr37   O268      1.82656      .   S
    N267   O269      1.07642      .   S
    Zr36   O269      1.82546      .   S
    N270   O271      1.07736      .   S
    Zr38   O271      1.82708      .   S
    N270   O272      1.07742      .   S
    Zr39   O272      1.82739      .   S
    N273   O274      1.07710      .   S
    Zr31   O274      1.82663      .   S
    N273   O275      1.07662      .   S
    Zr30   O275      1.82568      .   S
    N276   O277      1.07358      .   S
    Zr53   O277      1.82088      .   S
    N276   O278      1.07369      .   S
    Zr52   O278      1.82111      .   S
    N279   O280      1.07372      .   S
    Zr40   O280      1.82117      .   S
    N279   O281      1.07357      .   S
    Zr41   O281      1.82087      .   S
    N282   O283      1.07732      .   S
    Zr32   O283      1.82697  1_554   S
    N282   O284      1.07742      .   S
    Zr33   O284      1.82735      .   S
    N285   O286      1.07738      .   S
    Zr50   O286      1.82710      .   S
    N285   O287      1.07752      .   S
    Zr51   O287      1.82722      .   S
    N288   O289      1.07345      .   S
    Zr47   O289      1.82088  1_556   S
    N288   O290      1.07307      .   S
    Zr46   O290      1.82215      .   S
    N291   O292      1.07703      .   S
    Zr43   O292      1.82656      .   S
    N291   O293      1.07655      .   S
    Zr42   O293      1.82587      .   S
