# CIF file generated by openbabel 2.4.90, see http://openbabel.sf.net
data_I
_chemical_name_common ''
_cell_length_a 15.44
_cell_length_b 17.79
_cell_length_c 18.318
_cell_angle_alpha 112.232
_cell_angle_beta 90.004
_cell_angle_gamma 89.996
_space_group_name_H-M_alt 'P 1'
_space_group_name_Hall 'P 1'
loop_
    _symmetry_equiv_pos_as_xyz
    x,y,z
loop_
    _atom_site_label
    _atom_site_type_symbol
    _atom_site_fract_x
    _atom_site_fract_y
    _atom_site_fract_z
    _atom_site_occupancy
    Zr0     Zr   0.50003   0.50266   0.83402   1.000
    Zr1     Zr   0.09665   0.00295   0.16680   1.000
    Zr2     Zr   0.59908   0.49677   0.99659   1.000
    Zr3     Zr   0.90009   0.00000   0.16628   1.000
    Zr4     Zr   0.00000   0.99736   0.66599   1.000
    Zr5     Zr   0.59666   0.49706   0.33320   1.000
    Zr6     Zr   0.09908   0.00320   0.50343   1.000
    Zr7     Zr   0.40008   0.49994   0.33370   1.000
    Zr8     Zr   0.49998   0.49735   0.16599   1.000
    Zr9     Zr   0.90337   0.99707   0.83320   1.000
    Zr10    Zr   0.40093   0.50322   0.00342   1.000
    Zr11    Zr   0.09992   0.99993   0.83371   1.000
    Zr12    Zr   0.99997   0.00264   0.33401   1.000
    Zr13    Zr   0.40336   0.50295   0.66680   1.000
    Zr14    Zr   0.90094   0.99680   0.49657   1.000
    Zr15    Zr   0.59993   0.50005   0.66629   1.000
    Zr16    Zr   1.00000   0.99999   0.99999   1.000
    Zr17    Zr   0.50001   0.49999   0.50000   1.000
    N18     N    0.74954   0.75088   0.91617   1.000
    N19     N    0.77198   0.72999   0.24713   1.000
    N20     N    0.74826   0.24697   0.08180   1.000
    N21     N    0.22804   0.27001   0.75286   1.000
    N22     N    0.75184   0.74693   0.58181   1.000
    N23     N    0.72803   0.22996   0.74713   1.000
    N24     N    0.75047   0.25086   0.41617   1.000
    N25     N    0.24953   0.74913   0.58382   1.000
    N26     N    0.25174   0.75302   0.91821   1.000
    N27     N    0.24816   0.25309   0.41819   1.000
    N28     N    0.25046   0.24913   0.08375   1.000
    N29     N    0.27197   0.77003   0.25285   1.000
    C30     C    0.11587   0.11195   0.63832   1.000
    O31     O    0.15343   0.16521   0.67697   1.000
    O32     O    0.12181   0.08070   0.59033   1.000
    O33     O    0.07362   0.08266   0.65593   1.000
    C34     C    0.12363   0.89652   0.03485   1.000
    O35     O    0.16665   0.84819   0.99548   1.000
    O36     O    0.12760   0.92872   0.08182   1.000
    O37     O    0.07835   0.92107   0.01582   1.000
    C38     C    0.99560   0.07754   0.12949   1.000
    O39     O    0.02119   0.05155   0.13694   1.000
    O40     O    0.99703   0.05081   0.09524   1.000
    O41     O    0.97206   0.05082   0.13681   1.000
    C42     C    0.85349   0.91365   0.03157   1.000
    O43     O    0.81842   0.85899   0.99256   1.000
    O44     O    0.89633   0.94154   0.01240   1.000
    O45     O    0.86200   0.93369   0.08018   1.000
    C46     C    0.87951   0.89056   0.69869   1.000
    O47     O    0.83668   0.84217   0.65923   1.000
    O48     O    0.92374   0.91644   0.68004   1.000
    O49     O    0.87498   0.92229   0.74645   1.000
    C50     C    0.84795   0.07806   0.63259   1.000
    O51     O    0.80741   0.12897   0.67123   1.000
    O52     O    0.89336   0.05245   0.65244   1.000
    O53     O    0.85738   0.05879   0.58351   1.000
    C54     C    0.88415   0.88804   0.36168   1.000
    O55     O    0.87822   0.91929   0.40967   1.000
    O56     O    0.92639   0.91734   0.34406   1.000
    O57     O    0.84659   0.83479   0.32302   1.000
    C58     C    0.87638   0.10349   0.96489   1.000
    O59     O    0.87241   0.07129   0.91805   1.000
    O60     O    0.83336   0.15182   0.00429   1.000
    O61     O    0.92165   0.07893   0.98405   1.000
    C62     C    0.99924   0.07669   0.46457   1.000
    O63     O    0.97485   0.04936   0.47055   1.000
    O64     O    0.02439   0.05096   0.47226   1.000
    O65     O    0.99961   0.05082   0.42991   1.000
    C66     C    0.00000   0.07379   0.79576   1.000
    O67     O    0.00000   0.04736   0.76159   1.000
    O68     O    0.02498   0.04800   0.80352   1.000
    O69     O    0.97584   0.04729   0.80339   1.000
    C70     C    0.14652   0.08635   0.96840   1.000
    O71     O    0.10368   0.05845   0.98758   1.000
    O72     O    0.13801   0.06629   0.91980   1.000
    O73     O    0.18159   0.14101   0.00740   1.000
    C74     C    0.14679   0.91297   0.69872   1.000
    O75     O    0.18144   0.85791   0.65992   1.000
    O76     O    0.13825   0.93334   0.74747   1.000
    O77     O    0.10390   0.94024   0.67914   1.000
    C78     C    0.85322   0.08702   0.30126   1.000
    O79     O    0.86176   0.06663   0.25250   1.000
    O80     O    0.89610   0.05976   0.32085   1.000
    O81     O    0.81857   0.14208   0.34007   1.000
    C82     C    0.99904   0.92621   0.20424   1.000
    O83     O    0.97439   0.95198   0.19648   1.000
    O84     O    0.02352   0.95272   0.19661   1.000
    O85     O    0.99936   0.95264   0.23841   1.000
    C86     C    0.15206   0.92195   0.36738   1.000
    O87     O    0.14264   0.94121   0.41646   1.000
    O88     O    0.19260   0.87103   0.32874   1.000
    O89     O    0.10665   0.94755   0.34755   1.000
    C90     C    0.00000   0.92331   0.53544   1.000
    O91     O    0.97523   0.94904   0.52774   1.000
    O92     O    0.00000   0.94918   0.57010   1.000
    O93     O    0.02477   0.95064   0.52946   1.000
    C94     C    0.12049   0.10946   0.30132   1.000
    O95     O    0.07625   0.08357   0.31996   1.000
    O96     O    0.12502   0.07773   0.25355   1.000
    O97     O    0.16331   0.15784   0.34077   1.000
    C98     C    0.00440   0.92247   0.87051   1.000
    O99     O    0.02795   0.94917   0.86319   1.000
    O100    O    0.97881   0.94846   0.86306   1.000
    O101    O    0.00297   0.94919   0.90476   1.000
    C102    C    0.50441   0.57754   0.62945   1.000
    O103    O    0.52796   0.55083   0.63678   1.000
    O104    O    0.47882   0.55156   0.63690   1.000
    O105    O    0.50298   0.55082   0.59520   1.000
    C106    C    0.64680   0.58704   0.80129   1.000
    O107    O    0.68145   0.64210   0.84008   1.000
    O108    O    0.63826   0.56665   0.75253   1.000
    O109    O    0.60391   0.55978   0.82086   1.000
    C110    C    0.50097   0.42620   0.70426   1.000
    O111    O    0.47648   0.45271   0.69662   1.000
    O112    O    0.50065   0.45264   0.73843   1.000
    O113    O    0.52563   0.45199   0.69649   1.000
    C114    C    0.49925   0.42330   0.03541   1.000
    O115    O    0.47486   0.45064   0.02944   1.000
    O116    O    0.52439   0.44903   0.02773   1.000
    O117    O    0.49962   0.44917   0.07008   1.000
    C118    C    0.37634   0.39651   0.53484   1.000
    O119    O    0.42162   0.42106   0.51581   1.000
    O120    O    0.33330   0.34821   0.49546   1.000
    O121    O    0.37238   0.42872   0.58181   1.000
    C122    C    0.38415   0.61199   0.13830   1.000
    O123    O    0.34659   0.66524   0.17696   1.000
    O124    O    0.42639   0.58268   0.15593   1.000
    O125    O    0.37822   0.58075   0.09031   1.000
    C126    C    0.62367   0.60349   0.46516   1.000
    O127    O    0.57838   0.57894   0.48419   1.000
    O128    O    0.66671   0.65180   0.50453   1.000
    O129    O    0.62762   0.57129   0.41819   1.000
    C130    C    0.65208   0.57807   0.13261   1.000
    O131    O    0.69261   0.62899   0.17124   1.000
    O132    O    0.64265   0.55879   0.08354   1.000
    O133    O    0.60666   0.55246   0.15244   1.000
    C134    C    0.64653   0.41363   0.53159   1.000
    O135    O    0.60369   0.44153   0.51242   1.000
    O136    O    0.63802   0.43369   0.58020   1.000
    O137    O    0.68161   0.35897   0.49258   1.000
    C138    C    0.49903   0.57380   0.29572   1.000
    O139    O    0.52353   0.54729   0.30337   1.000
    O140    O    0.47438   0.54801   0.30349   1.000
    O141    O    0.49936   0.54737   0.26157   1.000
    C142    C    0.34793   0.42194   0.86736   1.000
    O143    O    0.39335   0.44754   0.84754   1.000
    O144    O    0.30740   0.37102   0.82872   1.000
    O145    O    0.35736   0.44121   0.91644   1.000
    C146    C    0.37943   0.60942   0.80130   1.000
    O147    O    0.33659   0.65779   0.84077   1.000
    O148    O    0.37493   0.57771   0.75354   1.000
    O149    O    0.42369   0.58356   0.81995   1.000
    C150    C    0.61584   0.38800   0.86170   1.000
    O151    O    0.65341   0.33475   0.82303   1.000
    O152    O    0.62178   0.41924   0.90969   1.000
    O153    O    0.57362   0.41732   0.84408   1.000
    C154    C    0.35321   0.41296   0.19871   1.000
    O155    O    0.31856   0.35791   0.15982   1.000
    O156    O    0.36175   0.43334   0.24746   1.000
    O157    O    0.39609   0.44023   0.17914   1.000
    C158    C    0.62057   0.39057   0.19869   1.000
    O159    O    0.66341   0.34220   0.15923   1.000
    O160    O    0.57632   0.41645   0.18005   1.000
    O161    O    0.62508   0.42229   0.24644   1.000
    C162    C    0.35348   0.58636   0.46840   1.000
    O163    O    0.36199   0.56630   0.41979   1.000
    O164    O    0.39632   0.55846   0.48758   1.000
    O165    O    0.31840   0.64102   0.50741   1.000
    C166    C    0.49561   0.42245   0.37050   1.000
    O167    O    0.47206   0.44916   0.36318   1.000
    O168    O    0.52120   0.44844   0.36305   1.000
    O169    O    0.49704   0.44918   0.40475   1.000
    C170    C    0.50076   0.57670   0.96457   1.000
    O171    O    0.50039   0.55083   0.92991   1.000
    O172    O    0.47562   0.55097   0.97226   1.000
    O173    O    0.52515   0.54936   0.97055   1.000
loop_
    _geom_bond_atom_site_label_1
    _geom_bond_atom_site_label_2
    _geom_bond_distance
    _geom_bond_site_symmetry_2
    _ccdc_geom_bond_type
    C30    O31       1.10799      .   S
    N21    O31       2.18500      .   S
    C30    O32       0.84874      .   S
    Zr6    O32       1.70218      .   S
    C30    O33       0.96354      .   S
    Zr4    O33       1.95973  1_565   S
    C34    O35       1.10959  1_554   S
    N26    O35       2.18690      .   S
    C34    O36       0.83616      .   S
    Zr1    O36       1.68520  1_545   S
    C34    O37       0.95722      .   S
    Zr16   O37       1.95615  1_656   S
    C38    O39       0.66044  1_655   S
    Zr1    O39       1.66185      .   S
    C38    O40       0.62807      .   S
    Zr16   O40       1.63401  1_566   S
    C38    O41       0.65144      .   S
    Zr3    O41       1.64707      .   S
    C42    O43       1.10626  1_554   S
    N18    O43       2.17977      .   S
    C42    O44       0.96896      .   S
    Zr16   O44       1.96822  1_556   S
    C42    O45       0.83489      .   S
    Zr3    O45       1.67841  1_545   S
    C46    O47       1.10894      .   S
    N22    O47       2.18634      .   S
    C46    O48       0.95603      .   S
    Zr4    O48       1.95093  1_455   S
    C46    O49       0.84572      .   S
    Zr9    O49       1.69925      .   S
    C50    O51       1.10811      .   S
    N23    O51       2.18467      .   S
    C50    O52       0.97789      .   S
    Zr4    O52       1.97921  1_465   S
    C50    O53       0.84485      .   S
    Zr14   O53       1.69590  1_565   S
    C54    O55       0.84878      .   S
    Zr14   O55       1.70219      .   S
    C54    O56       0.96347      .   S
    Zr12   O56       1.95939  1_545   S
    C54    O57       1.10800      .   S
    N19    O57       2.18504      .   S
    C58    O59       0.83429      .   S
    Zr9    O59       1.68368  1_565   S
    C58    O60       1.10979  1_556   S
    N20    O60       2.18839      .   S
    C58    O61       0.95854      .   S
    Zr16   O61       1.95732  1_565   S
    C62    O63       0.65614      .   S
    Zr14   O63       1.65574  1_565   S
    C62    O64       0.65493  1_655   S
    Zr6    O64       1.65667      .   S
    C62    O65       0.62764      .   S
    Zr12   O65       1.63738      .   S
    C66    O67       0.62459      .   S
    Zr4    O67       1.63678  1_565   S
    C66    O68       0.65484      .   S
    Zr11   O68       1.65351  1_565   S
    C66    O69       0.65646  1_455   S
    Zr9    O69       1.64864  1_565   S
    C70    O71       0.96913      .   S
    Zr16   O71       1.96854  1_665   S
    C70    O72       0.83473      .   S
    Zr11   O72       1.67861  1_565   S
    C70    O73       1.10619  1_556   S
    N28    O73       2.17960      .   S
    C74    O75       1.10626      .   S
    N25    O75       2.17995      .   S
    C74    O76       0.83752      .   S
    Zr11   O76       1.68308      .   S
    C74    O77       0.96645      .   S
    Zr4    O77       1.96198      .   S
    C78    O79       0.83765      .   S
    Zr3    O79       1.68317      .   S
    C78    O80       0.96640      .   S
    Zr12   O80       1.96156      .   S
    C78    O81       1.10629      .   S
    N24    O81       2.17995      .   S
    C82    O83       0.65161      .   S
    Zr3    O83       1.64594  1_545   S
    C82    O84       0.65940  1_655   S
    Zr1    O84       1.65553  1_545   S
    C82    O85       0.62461      .   S
    Zr12   O85       1.63681  1_545   S
    C86    O87       0.84475      .   S
    Zr6    O87       1.69623  1_545   S
    C86    O88       1.10813      .   S
    N29    O88       2.18462      .   S
    C86    O89       0.97791      .   S
    Zr12   O89       1.97956  1_645   S
    C90    O91       0.65146  1_455   S
    Zr14   O91       1.65244      .   S
    C90    O92       0.62759      .   S
    Zr4    O92       1.63733      .   S
    C90    O93       0.65955      .   S
    Zr6    O93       1.65993  1_545   S
    C94    O95       0.95614      .   S
    Zr12   O95       1.95123  1_655   S
    C94    O96       0.84574      .   S
    Zr1    O96       1.69923      .   S
    C94    O97       1.10887      .   S
    N27    O97       2.18637      .   S
    C98    O99       0.65122      .   S
    Zr11   O99       1.64652      .   S
    C98    O100      0.66044  1_455   S
    Zr9    O100      1.66186      .   S
    C98    O101      0.62795      .   S
    Zr16   O101      1.63372  1_655   S
    C102   O103      0.65129      .   S
    Zr15   O103      1.64707      .   S
    C102   O104      0.66048      .   S
    Zr13   O104      1.66245      .   S
    C102   O105      0.62807      .   S
    Zr17   O105      1.63331      .   S
    C106   O107      1.10624      .   S
    N18    O107      2.17990      .   S
    C106   O108      0.83757      .   S
    Zr15   O108      1.68326      .   S
    C106   O109      0.96643      .   S
    Zr0    O109      1.96189      .   S
    C110   O111      0.65947      .   S
    Zr13   O111      1.65565      .   S
    C110   O112      0.62462      .   S
    Zr0    O112      1.63682      .   S
    C110   O113      0.65188      .   S
    Zr15   O113      1.64670      .   S
    C114   O115      0.65627      .   S
    Zr10   O115      1.65594      .   S
    C114   O116      0.65484      .   S
    Zr2    O116      1.65628  1_556   S
    C114   O117      0.62764      .   S
    Zr8    O117      1.63762      .   S
    C118   O119      0.95734      .   S
    Zr17   O119      1.95658      .   S
    C118   O120      1.10962      .   S
    N27    O120      2.18698      .   S
    C118   O121      0.83623      .   S
    Zr13   O121      1.68539      .   S
    C122   O123      1.10798      .   S
    N29    O123      2.18498      .   S
    C122   O124      0.96365      .   S
    Zr8    O124      1.95988      .   S
    C122   O125      0.84877      .   S
    Zr10   O125      1.70217      .   S
    C126   O127      0.95738      .   S
    Zr17   O127      1.95670      .   S
    C126   O128      1.10961      .   S
    N22    O128      2.18696      .   S
    C126   O129      0.83622      .   S
    Zr5    O129      1.68537      .   S
    C130   O131      1.10814      .   S
    N19    O131      2.18463      .   S
    C130   O132      0.84466      .   S
    Zr2    O132      1.69612  1_556   S
    C130   O133      0.97808      .   S
    Zr8    O133      1.98002      .   S
    C134   O135      0.96908      .   S
    Zr17   O135      1.96847      .   S
    C134   O136      0.83484      .   S
    Zr15   O136      1.67865      .   S
    C134   O137      1.10628      .   S
    N24    O137      2.17982      .   S
    C138   O139      0.65956      .   S
    Zr5    O139      1.65573      .   S
    C138   O140      0.65198      .   S
    Zr7    O140      1.64681      .   S
    C138   O141      0.62445      .   S
    Zr8    O141      1.63654      .   S
    C142   O143      0.97791      .   S
    Zr0    O143      1.97991      .   S
    C142   O144      1.10812      .   S
    N21    O144      2.18448      .   S
    C142   O145      0.84497      .   S
    Zr10   O145      1.69644  1_554   S
    C146   O147      1.10895      .   S
    N26    O147      2.18635      .   S
    C146   O148      0.84563      .   S
    Zr13   O148      1.69912      .   S
    C146   O149      0.95617      .   S
    Zr0    O149      1.95125      .   S
    C150   O151      1.10801      .   S
    N23    O151      2.18508      .   S
    C150   O152      0.84878      .   S
    Zr2    O152      1.70227      .   S
    C150   O153      0.96366      .   S
    Zr0    O153      1.95989      .   S
    C154   O155      1.10676      .   S
    N28    O155      2.17979      .   S
    C154   O156      0.83751      .   S
    Zr7    O156      1.68319      .   S
    C154   O157      0.96643      .   S
    Zr8    O157      1.96189      .   S
    C158   O159      1.10890      .   S
    N20    O159      2.18630      .   S
    C158   O160      0.95610      .   S
    Zr8    O160      1.95118      .   S
    C158   O161      0.84558      .   S
    Zr5    O161      1.69933      .   S
    C162   O163      0.83484      .   S
    Zr7    O163      1.67866      .   S
    C162   O164      0.96911      .   S
    Zr17   O164      1.96853      .   S
    C162   O165      1.10628      .   S
    N25    O165      2.17981      .   S
    C166   O167      0.65128      .   S
    Zr7    O167      1.64666      .   S
    C166   O168      0.66047      .   S
    Zr5    O168      1.66204      .   S
    C166   O169      0.62809      .   S
    Zr17   O169      1.63404      .   S
    C170   O171      0.62763      .   S
    Zr0    O171      1.63728      .   S
    C170   O172      0.65487      .   S
    Zr10   O172      1.65656  1_554   S
    C170   O173      0.65628      .   S
    Zr2    O173      1.65617      .   S
