# CIF file generated by openbabel 2.4.90, see http://openbabel.sf.net
data_I
_chemical_name_common ''
_cell_length_a 15.44
_cell_length_b 17.79
_cell_length_c 18.318
_cell_angle_alpha 112.232
_cell_angle_beta 90.004
_cell_angle_gamma 89.996
_space_group_name_H-M_alt 'P 1'
_space_group_name_Hall 'P 1'
loop_
    _symmetry_equiv_pos_as_xyz
    x,y,z
loop_
    _atom_site_label
    _atom_site_type_symbol
    _atom_site_fract_x
    _atom_site_fract_y
    _atom_site_fract_z
    _atom_site_occupancy
    C0      C    0.50003   0.50266   0.83402   1.000
    C1      C    0.09665   0.00295   0.16680   1.000
    C2      C    0.59908   0.49677   0.99659   1.000
    C3      C    0.90009   0.00000   0.16628   1.000
    C4      C    0.00000   0.99736   0.66599   1.000
    C5      C    0.59666   0.49706   0.33320   1.000
    C6      C    0.09908   0.00320   0.50343   1.000
    C7      C    0.40008   0.49994   0.33370   1.000
    C8      C    0.49998   0.49735   0.16599   1.000
    C9      C    0.90337   0.99707   0.83320   1.000
    C10     C    0.40093   0.50322   0.00342   1.000
    C11     C    0.09992   0.99993   0.83371   1.000
    C12     C    0.99997   0.00264   0.33401   1.000
    C13     C    0.40336   0.50295   0.66680   1.000
    C14     C    0.90094   0.99680   0.49657   1.000
    C15     C    0.59993   0.50005   0.66629   1.000
    C16     C    1.00000   0.99999   0.99999   1.000
    C17     C    0.50001   0.49999   0.50000   1.000
    C18     C    0.50132   0.39691   0.69736   1.000
    C19     C    0.50151   0.60614   0.97268   1.000
    C20     C    0.99427   0.10688   0.13700   1.000
    C21     C    0.83211   0.16264   0.80626   1.000
    C22     C    0.74736   0.28286   0.89260   1.000
    C23     C    0.62188   0.29559   0.68811   1.000
    C24     C    0.70991   0.17791   0.60156   1.000
    C25     C    0.10549   0.77328   0.87207   1.000
    C26     C    0.20318   0.66477   0.78354   1.000
    C27     C    0.39793   0.73257   0.96439   1.000
    C28     C    0.30027   0.84130   0.05289   1.000
    C29     C    0.67837   0.66085   0.97421   1.000
    C30     C    0.75410   0.78709   0.06108   1.000
    C31     C    0.82093   0.84075   0.85813   1.000
    C32     C    0.74436   0.71514   0.77126   1.000
    C33     C    0.00000   0.10308   0.80266   1.000
    C34     C    0.00000   0.89387   0.52734   1.000
    C35     C    0.49429   0.39310   0.36298   1.000
    C36     C    0.33208   0.33733   0.69374   1.000
    C37     C    0.24736   0.21709   0.60735   1.000
    C38     C    0.12190   0.20438   0.81191   1.000
    C39     C    0.20991   0.32208   0.89845   1.000
    C40     C    0.60559   0.72672   0.62796   1.000
    C41     C    0.70331   0.83521   0.71647   1.000
    C42     C    0.89804   0.76731   0.53562   1.000
    C43     C    0.80034   0.65860   0.44713   1.000
    C44     C    0.17835   0.83918   0.52580   1.000
    C45     C    0.25409   0.71295   0.43890   1.000
    C46     C    0.32091   0.65923   0.64185   1.000
    C47     C    0.24434   0.78484   0.72872   1.000
    C48     C    0.49868   0.60309   0.30260   1.000
    C49     C    0.49850   0.39386   0.02733   1.000
    C50     C    0.00573   0.89312   0.86300   1.000
    C51     C    0.16790   0.83736   0.19370   1.000
    C52     C    0.25264   0.71713   0.10733   1.000
    C53     C    0.37812   0.70440   0.31189   1.000
    C54     C    0.29010   0.82209   0.39840   1.000
    C55     C    0.89451   0.22671   0.12794   1.000
    C56     C    0.79681   0.33522   0.21647   1.000
    C57     C    0.60207   0.26742   0.03562   1.000
    C58     C    0.69973   0.15869   0.94712   1.000
    C59     C    0.32164   0.33915   0.02570   1.000
    C60     C    0.24590   0.21292   0.93891   1.000
    C61     C    0.17907   0.15926   0.14186   1.000
    C62     C    0.25564   0.28486   0.22873   1.000
    C63     C    0.99870   0.89692   0.19734   1.000
    C64     C    0.99849   0.10613   0.47267   1.000
    C65     C    0.50574   0.60689   0.63701   1.000
    C66     C    0.66793   0.66267   0.30625   1.000
    C67     C    0.75266   0.78291   0.39265   1.000
    C68     C    0.87811   0.79562   0.18809   1.000
    C69     C    0.79010   0.67793   0.10155   1.000
    C70     C    0.39441   0.27329   0.37204   1.000
    C71     C    0.29668   0.16480   0.28353   1.000
    C72     C    0.10195   0.23271   0.46439   1.000
    C73     C    0.19966   0.34142   0.55288   1.000
    C74     C    0.82166   0.16081   0.47420   1.000
    C75     C    0.74593   0.28705   0.56109   1.000
    C76     C    0.67909   0.34075   0.35810   1.000
    C77     C    0.75565   0.21514   0.27127   1.000
    C78     C    0.83365   0.09558   0.64691   1.000
    C79     C    0.77777   0.16401   0.69830   1.000
    C80     C    0.78697   0.19280   0.78066   1.000
    C81     C    0.73910   0.25930   0.82892   1.000
    C82     C    0.67939   0.29687   0.79582   1.000
    C83     C    0.62844   0.36920   0.84742   1.000
    C84     C    0.66831   0.26651   0.71369   1.000
    C85     C    0.71754   0.20111   0.66534   1.000
    C86     C    0.13827   0.87937   0.02021   1.000
    C87     C    0.19690   0.81403   0.96780   1.000
    C88     C    0.16979   0.76421   0.89172   1.000
    C89     C    0.22403   0.70382   0.84250   1.000
    C90     C    0.30659   0.69207   0.86857   1.000
    C91     C    0.36496   0.62653   0.81597   1.000
    C92     C    0.33369   0.74181   0.94469   1.000
    C93     C    0.27949   0.80231   0.99389   1.000
    C94     C    0.65890   0.60627   0.81575   1.000
    C95     C    0.70643   0.68058   0.86740   1.000
    C96     C    0.70922   0.70066   0.94917   1.000
    C97     C    0.75193   0.77053   0.99755   1.000
    C98     C    0.79304   0.82093   0.96494   1.000
    C99     C    0.84122   0.89461   0.01693   1.000
    C100    C    0.79001   0.80100   0.88320   1.000
    C101    C    0.74705   0.73124   0.83477   1.000
    C102    C    0.33363   0.40441   0.85300   1.000
    C103    C    0.27776   0.33597   0.80162   1.000
    C104    C    0.28696   0.30716   0.71935   1.000
    C105    C    0.23910   0.24066   0.67100   1.000
    C106    C    0.17941   0.20308   0.70419   1.000
    C107    C    0.12847   0.13075   0.65260   1.000
    C108    C    0.16833   0.23346   0.78632   1.000
    C109    C    0.21754   0.29887   0.83467   1.000
    C110    C    0.63831   0.62062   0.47980   1.000
    C111    C    0.69699   0.68593   0.53222   1.000
    C112    C    0.66989   0.73577   0.60830   1.000
    C113    C    0.72414   0.79614   0.65751   1.000
    C114    C    0.80671   0.80787   0.63143   1.000
    C115    C    0.86505   0.87344   0.68403   1.000
    C116    C    0.83380   0.75810   0.55532   1.000
    C117    C    0.77958   0.69761   0.50614   1.000
    C118    C    0.15888   0.89374   0.68426   1.000
    C119    C    0.20641   0.81943   0.63260   1.000
    C120    C    0.20921   0.79936   0.55084   1.000
    C121    C    0.25192   0.72950   0.50240   1.000
    C122    C    0.29302   0.67908   0.53504   1.000
    C123    C    0.34120   0.60540   0.48303   1.000
    C124    C    0.29000   0.69900   0.61678   1.000
    C125    C    0.24703   0.76875   0.66522   1.000
    C126    C    0.16636   0.90442   0.35309   1.000
    C127    C    0.22223   0.83599   0.30161   1.000
    C128    C    0.21303   0.80719   0.21934   1.000
    C129    C    0.26090   0.74069   0.17108   1.000
    C130    C    0.32061   0.70312   0.20418   1.000
    C131    C    0.37155   0.63079   0.15258   1.000
    C132    C    0.33169   0.73348   0.28631   1.000
    C133    C    0.28246   0.79888   0.33465   1.000
    C134    C    0.86174   0.12063   0.97900   1.000
    C135    C    0.80309   0.18596   0.03220   1.000
    C136    C    0.83021   0.23578   0.10828   1.000
    C137    C    0.77597   0.29617   0.15750   1.000
    C138    C    0.69340   0.30792   0.13143   1.000
    C139    C    0.63504   0.37347   0.18404   1.000
    C140    C    0.66631   0.25818   0.05531   1.000
    C141    C    0.72051   0.19768   0.00612   1.000
    C142    C    0.34111   0.39373   0.18425   1.000
    C143    C    0.29358   0.31943   0.13200   1.000
    C144    C    0.29078   0.29934   0.05083   1.000
    C145    C    0.24807   0.22948   0.00244   1.000
    C146    C    0.20697   0.17907   0.03505   1.000
    C147    C    0.15879   0.10539   0.98300   1.000
    C148    C    0.20999   0.19901   0.11679   1.000
    C149    C    0.25295   0.26877   0.16523   1.000
    C150    C    0.66638   0.59560   0.14690   1.000
    C151    C    0.72225   0.66403   0.19837   1.000
    C152    C    0.71306   0.69284   0.28065   1.000
    C153    C    0.76091   0.75934   0.32890   1.000
    C154    C    0.82061   0.79691   0.29580   1.000
    C155    C    0.87156   0.86924   0.34740   1.000
    C156    C    0.83168   0.76654   0.21367   1.000
    C157    C    0.78246   0.70114   0.16533   1.000
    C158    C    0.36169   0.37939   0.52020   1.000
    C159    C    0.30301   0.31408   0.46778   1.000
    C160    C    0.33011   0.26425   0.39170   1.000
    C161    C    0.27585   0.20387   0.34250   1.000
    C162    C    0.19328   0.19214   0.36850   1.000
    C163    C    0.13495   0.12657   0.31598   1.000
    C164    C    0.16620   0.24191   0.44469   1.000
    C165    C    0.22042   0.30240   0.49387   1.000
    C166    C    0.84113   0.10625   0.31574   1.000
    C167    C    0.79359   0.18056   0.36739   1.000
    C168    C    0.79080   0.20063   0.44916   1.000
    C169    C    0.74808   0.27049   0.49755   1.000
    C170    C    0.70698   0.32091   0.46495   1.000
    C171    C    0.65881   0.39459   0.51696   1.000
    C172    C    0.71000   0.30099   0.38321   1.000
    C173    C    0.75296   0.23123   0.33477   1.000
    C174    C    0.50062   0.45549   0.71116   1.000
    C175    C    0.50001   0.54726   0.95647   1.000
    C176    C    0.99693   0.04819   0.12198   1.000
    C177    C    0.33748   0.58903   0.74476   1.000
    C178    C    0.16648   0.91892   0.09076   1.000
    C179    C    0.83267   0.08224   0.57230   1.000
    C180    C    0.56275   0.39061   0.81889   1.000
    C181    C    0.43585   0.61272   0.84318   1.000
    C182    C    0.87833   0.93888   0.98647   1.000
    C183    C    0.65634   0.40419   0.91878   1.000
    C184    C    0.06615   0.89126   0.99358   1.000
    C185    C    0.87753   0.05634   0.67857   1.000
    C186    C    0.62202   0.56237   0.84686   1.000
    C187    C    0.84092   0.90746   0.09130   1.000
    C188    C    0.65949   0.59248   0.74126   1.000
    C189    C    0.00000   0.04450   0.78885   1.000
    C190    C    0.00000   0.95275   0.54353   1.000
    C191    C    0.49693   0.45180   0.37801   1.000
    C192    C    0.83755   0.91096   0.75522   1.000
    C193    C    0.66650   0.58110   0.40924   1.000
    C194    C    0.33265   0.41776   0.92764   1.000
    C195    C    0.06274   0.10939   0.68110   1.000
    C196    C    0.93593   0.88728   0.65681   1.000
    C197    C    0.37832   0.56112   0.51350   1.000
    C198    C    0.15641   0.09571   0.58126   1.000
    C199    C    0.56619   0.60876   0.50644   1.000
    C200    C    0.37750   0.44364   0.82143   1.000
    C201    C    0.12202   0.93766   0.65315   1.000
    C202    C    0.34091   0.59255   0.40867   1.000
    C203    C    0.15948   0.90751   0.75874   1.000
    C204    C    0.49938   0.54451   0.28884   1.000
    C205    C    0.50000   0.45274   0.04350   1.000
    C206    C    0.00308   0.95182   0.87802   1.000
    C207    C    0.66252   0.41097   0.25520   1.000
    C208    C    0.83353   0.08110   0.90924   1.000
    C209    C    0.16734   0.91775   0.42763   1.000
    C210    C    0.43726   0.60940   0.18111   1.000
    C211    C    0.56415   0.38729   0.15682   1.000
    C212    C    0.12168   0.06112   0.01352   1.000
    C213    C    0.34364   0.59578   0.08122   1.000
    C214    C    0.93386   0.10875   0.00642   1.000
    C215    C    0.12249   0.94367   0.32143   1.000
    C216    C    0.37798   0.43764   0.15314   1.000
    C217    C    0.15909   0.09253   0.90869   1.000
    C218    C    0.34052   0.40751   0.25873   1.000
    C219    C    0.99938   0.95550   0.21115   1.000
    C220    C    0.99999   0.04725   0.45647   1.000
    C221    C    0.50309   0.54820   0.62190   1.000
    C222    C    0.16245   0.08906   0.24478   1.000
    C223    C    0.33351   0.41892   0.59076   1.000
    C224    C    0.66736   0.58224   0.07235   1.000
    C225    C    0.93727   0.89062   0.31888   1.000
    C226    C    0.06407   0.11273   0.34319   1.000
    C227    C    0.62168   0.43887   0.48649   1.000
    C228    C    0.84363   0.90427   0.41875   1.000
    C229    C    0.43382   0.39124   0.49356   1.000
    C230    C    0.62250   0.55637   0.17857   1.000
    C231    C    0.87800   0.06235   0.34685   1.000
    C232    C    0.65910   0.40743   0.59132   1.000
    C233    C    0.84053   0.09247   0.24120   1.000
    O234    O    0.22752   0.20428   0.01874   1.000
    O235    O    0.26943   0.26441   0.02663   1.000
    O236    O    0.24699   0.22120   0.97067   1.000
    O237    O    0.45046   0.47798   0.02346   1.000
    O238    O    0.37229   0.54950   0.04232   1.000
    O239    O    0.36679   0.46049   0.96553   1.000
    O240    O    0.76180   0.19182   0.01916   1.000
    O241    O    0.69341   0.22793   0.03071   1.000
    O242    O    0.71012   0.17819   0.97662   1.000
    O243    O    0.89780   0.11469   0.99271   1.000
    O244    O    0.96693   0.05437   0.00321   1.000
    O245    O    0.14023   0.08325   0.99826   1.000
    O246    O    0.06084   0.03055   0.00676   1.000
    O247    O    0.84107   0.90104   0.05412   1.000
    O248    O    0.81713   0.85777   0.99094   1.000
    O249    O    0.85978   0.91674   0.00170   1.000
    O250    O    0.15238   0.89915   0.05548   1.000
    O251    O    0.16759   0.84670   0.99401   1.000
    O252    O    0.10221   0.88531   0.00690   1.000
    O253    O    0.30621   0.31925   0.03827   1.000
    O254    O    0.49925   0.42330   0.03541   1.000
    O255    O    0.81665   0.21087   0.07024   1.000
    O256    O    0.83242   0.15330   0.00560   1.000
    O257    O    0.20848   0.18904   0.07592   1.000
    O258    O    0.18288   0.14223   0.00903   1.000
    O259    O    0.63419   0.26280   0.04547   1.000
    O260    O    0.29218   0.30938   0.09141   1.000
    O261    O    0.28988   0.82181   0.02339   1.000
    O262    O    0.67985   0.28305   0.09337   1.000
    O263    O    0.75302   0.77881   0.02932   1.000
    O264    O    0.66687   0.58892   0.10963   1.000
    O265    O    0.63322   0.53950   0.03447   1.000
    O266    O    0.35760   0.61329   0.11690   1.000
    O267    O    0.13156   0.96093   0.12878   1.000
    O268    O    0.87051   0.95373   0.12879   1.000
    O269    O    0.78628   0.68953   0.13344   1.000
    O270    O    0.25677   0.72891   0.13920   1.000
    O271    O    0.86236   0.23125   0.11811   1.000
    O272    O    0.80309   0.26598   0.13289   1.000
    O273    O    0.19453   0.17913   0.12932   1.000
    O274    O    0.23147   0.23389   0.14101   1.000
    O275    O    0.99560   0.07754   0.12949   1.000
    O276    O    0.94851   0.02409   0.14413   1.000
    O277    O    0.73468   0.30204   0.14446   1.000
    O278    O    0.66422   0.34069   0.15774   1.000
    O279    O    0.27327   0.29410   0.14861   1.000
    O280    O    0.31735   0.35658   0.15812   1.000
    O281    O    0.64444   0.57598   0.16273   1.000
    O282    O    0.69432   0.62981   0.17263   1.000
    O283    O    0.40441   0.62009   0.16684   1.000
    O284    O    0.34608   0.66696   0.17838   1.000
    O285    O    0.43898   0.46749   0.15957   1.000
    O286    O    0.35955   0.41568   0.16869   1.000
    O287    O    0.53207   0.44232   0.16140   1.000
    O288    O    0.59960   0.38038   0.17043   1.000
    O289    O    0.78639   0.31569   0.18699   1.000
    O290    O    0.25430   0.27681   0.19698   1.000
    O291    O    0.75236   0.68258   0.18185   1.000
    O292    O    0.80707   0.73384   0.18950   1.000
    O293    O    0.56124   0.52686   0.17228   1.000
    O294    O    0.46862   0.55337   0.17355   1.000
    O295    O    0.94973   0.97775   0.18871   1.000
    O296    O    0.87031   0.04623   0.20374   1.000
    O297    O    0.12955   0.04600   0.20579   1.000
    O298    O    0.29075   0.72190   0.18763   1.000
    O299    O    0.23697   0.77394   0.19521   1.000
    O300    O    0.64878   0.39222   0.21962   1.000
    O301    O    0.34082   0.40062   0.22149   1.000
    O302    O    0.85489   0.78108   0.20088   1.000
    O303    O    0.19047   0.82228   0.20652   1.000
    O304    O    0.99904   0.92621   0.20424   1.000
    O305    O    0.71765   0.67843   0.23951   1.000
    O306    O    0.32615   0.71830   0.24524   1.000
    O307    O    0.82615   0.78173   0.25473   1.000
    O308    O    0.21763   0.82159   0.26047   1.000
    O309    O    0.84083   0.09936   0.27847   1.000
    O310    O    0.14870   0.10782   0.28038   1.000
    O311    O    0.62959   0.45401   0.29420   1.000
    O312    O    0.37030   0.45373   0.29622   1.000
    O313    O    0.75431   0.22319   0.30302   1.000
    O314    O    0.69049   0.67775   0.29345   1.000
    O315    O    0.73699   0.72609   0.30478   1.000
    O316    O    0.28626   0.18434   0.31302   1.000
    O317    O    0.35490   0.71894   0.29910   1.000
    O318    O    0.30707   0.76618   0.31048   1.000
    O319    O    0.49903   0.57380   0.29572   1.000
    O320    O    0.54802   0.52078   0.31102   1.000
    O321    O    0.79076   0.77813   0.31235   1.000
    O322    O    0.84609   0.83308   0.32160   1.000
    O323    O    0.25235   0.81744   0.31813   1.000
    O324    O    0.19430   0.87021   0.32735   1.000
    O325    O    0.85956   0.08430   0.33130   1.000
    O326    O    0.81736   0.14341   0.34157   1.000
    O327    O    0.09951   0.11965   0.32959   1.000
    O328    O    0.16412   0.15936   0.34224   1.000
    O329    O    0.96862   0.94663   0.32645   1.000
    O330    O    0.90441   0.87993   0.33314   1.000
    O331    O    0.06123   0.97315   0.32772   1.000
    O332    O    0.14443   0.92404   0.33726   1.000
    O333    O    0.75679   0.77113   0.36078   1.000
    O334    O    0.63158   0.53908   0.37122   1.000
    O335    O    0.44850   0.47587   0.35586   1.000
    O336    O    0.37049   0.54625   0.37118   1.000
    O337    O    0.03202   0.05769   0.33860   1.000
    O338    O    0.93898   0.03249   0.34043   1.000
    O339    O    0.28628   0.81048   0.36652   1.000
    O340    O    0.77328   0.20589   0.35108   1.000
    O341    O    0.73148   0.26611   0.35899   1.000
    O342    O    0.23457   0.19801   0.35550   1.000
    O343    O    0.30298   0.23406   0.36710   1.000
    O344    O    0.85759   0.88675   0.38307   1.000
    O345    O    0.16685   0.91109   0.39036   1.000
    O346    O    0.69454   0.32087   0.37065   1.000
    O347    O    0.49561   0.42245   0.37050   1.000
    O348    O    0.79220   0.19059   0.40827   1.000
    O349    O    0.17974   0.21703   0.40660   1.000
    O350    O    0.36226   0.26877   0.38187   1.000
    O351    O    0.70849   0.31095   0.42408   1.000
    O352    O    0.31656   0.28916   0.42974   1.000
    O353    O    0.34105   0.59898   0.44585   1.000
    O354    O    0.65241   0.60086   0.44452   1.000
    O355    O    0.87228   0.95053   0.45766   1.000
    O356    O    0.13321   0.96048   0.46553   1.000
    O357    O    0.25300   0.72122   0.47065   1.000
    O358    O    0.13407   0.23731   0.45454   1.000
    O359    O    0.19331   0.27216   0.46928   1.000
    O360    O    0.78996   0.67811   0.47664   1.000
    O361    O    0.80623   0.18072   0.46168   1.000
    O362    O    0.76944   0.23556   0.47336   1.000
    O363    O    0.99924   0.07669   0.46457   1.000
    O364    O    0.95047   0.02202   0.47652   1.000
    O365    O    0.72753   0.29570   0.48125   1.000
    O366    O    0.68289   0.35775   0.49096   1.000
    O367    O    0.26172   0.30824   0.48082   1.000
    O368    O    0.33235   0.34673   0.49399   1.000
    O369    O    0.60225   0.61469   0.49312   1.000
    O370    O    0.66765   0.65328   0.50601   1.000
    O371    O    0.35976   0.58326   0.49827   1.000
    O372    O    0.31711   0.64224   0.50904   1.000
    O373    O    0.56084   0.46943   0.49324   1.000
    O374    O    0.64024   0.41673   0.50173   1.000
    O375    O    0.46691   0.44562   0.49678   1.000
    O376    O    0.39775   0.38531   0.50688   1.000
    O377    O    0.21004   0.32191   0.52338   1.000
    O378    O    0.86681   0.03952   0.53443   1.000
    O379    O    0.74701   0.27877   0.52932   1.000
    O380    O    0.53310   0.55438   0.50322   1.000
    O381    O    0.43916   0.53055   0.50675   1.000
    O382    O    0.27247   0.70429   0.51872   1.000
    O383    O    0.23057   0.76443   0.52662   1.000
    O384    O    0.04954   0.97797   0.52348   1.000
    O385    O    0.12775   0.04945   0.54234   1.000
    O386    O    0.73828   0.69177   0.51918   1.000
    O387    O    0.80669   0.72786   0.53073   1.000
    O388    O    0.65895   0.40101   0.55414   1.000
    O389    O    0.34760   0.39915   0.55548   1.000
    O390    O    0.19378   0.81927   0.53832   1.000
    O391    O    0.00000   0.92331   0.53544   1.000
    O392    O    0.68344   0.71085   0.57026   1.000
    O393    O    0.29151   0.68904   0.57591   1.000
    O394    O    0.86592   0.76271   0.54547   1.000
    O395    O    0.20781   0.80939   0.59172   1.000
    O396    O    0.82025   0.78299   0.59338   1.000
    O397    O    0.83316   0.08891   0.60961   1.000
    O398    O    0.14244   0.11323   0.61693   1.000
    O399    O    0.36843   0.46093   0.62878   1.000
    O400    O    0.62952   0.45374   0.62881   1.000
    O401    O    0.71372   0.18951   0.63345   1.000
    O402    O    0.24323   0.22887   0.63918   1.000
    O403    O    0.63774   0.73125   0.61813   1.000
    O404    O    0.69702   0.76596   0.63291   1.000
    O405    O    0.30545   0.67911   0.62931   1.000
    O406    O    0.26852   0.73388   0.64100   1.000
    O407    O    0.50441   0.57754   0.62945   1.000
    O408    O    0.55151   0.52412   0.64410   1.000
    O409    O    0.76543   0.80201   0.64447   1.000
    O410    O    0.83588   0.84065   0.65773   1.000
    O411    O    0.22672   0.79409   0.64891   1.000
    O412    O    0.18264   0.85658   0.65843   1.000
    O413    O    0.85559   0.07596   0.66274   1.000
    O414    O    0.80571   0.12979   0.67261   1.000
    O415    O    0.09560   0.12007   0.66685   1.000
    O416    O    0.15394   0.16692   0.67839   1.000
    O417    O    0.06101   0.96751   0.65957   1.000
    O418    O    0.14045   0.91570   0.66870   1.000
    O419    O    0.96796   0.94232   0.66140   1.000
    O420    O    0.90049   0.88036   0.67042   1.000
    O421    O    0.71373   0.81568   0.68699   1.000
    O422    O    0.24569   0.77680   0.69697   1.000
    O423    O    0.74766   0.18256   0.68182   1.000
    O424    O    0.69293   0.23381   0.68952   1.000
    O425    O    0.93876   0.02685   0.67228   1.000
    O426    O    0.03137   0.05338   0.67355   1.000
    O427    O    0.62971   0.54626   0.70378   1.000
    O428    O    0.45199   0.47922   0.68898   1.000
    O429    O    0.37042   0.54599   0.70578   1.000
    O430    O    0.20925   0.22187   0.68760   1.000
    O431    O    0.26303   0.27391   0.69518   1.000
    O432    O    0.85130   0.89220   0.71963   1.000
    O433    O    0.15918   0.90063   0.72150   1.000
    O434    O    0.64510   0.28105   0.70090   1.000
    O435    O    0.30952   0.32225   0.70655   1.000
    O436    O    0.50097   0.42620   0.70426   1.000
    O437    O    0.78237   0.17841   0.73948   1.000
    O438    O    0.17387   0.21827   0.74526   1.000
    O439    O    0.67385   0.28169   0.75476   1.000
    O440    O    0.28236   0.32157   0.76048   1.000
    O441    O    0.65920   0.59937   0.77851   1.000
    O442    O    0.35122   0.60778   0.78036   1.000
    O443    O    0.87046   0.95401   0.79421   1.000
    O444    O    0.12970   0.95372   0.79622   1.000
    O445    O    0.74571   0.72319   0.80302   1.000
    O446    O    0.80954   0.17772   0.79346   1.000
    O447    O    0.76303   0.22605   0.80479   1.000
    O448    O    0.21361   0.68430   0.81302   1.000
    O449    O    0.14512   0.21892   0.79912   1.000
    O450    O    0.19294   0.26617   0.81050   1.000
    O451    O    0.00000   0.07379   0.79576   1.000
    O452    O    0.95168   0.02079   0.81103   1.000
    O453    O    0.70924   0.27809   0.81237   1.000
    O454    O    0.65391   0.33304   0.82162   1.000
    O455    O    0.24765   0.31742   0.81815   1.000
    O456    O    0.30569   0.37019   0.82731   1.000
    O457    O    0.64046   0.58432   0.83131   1.000
    O458    O    0.68266   0.64342   0.84157   1.000
    O459    O    0.40040   0.61962   0.82957   1.000
    O460    O    0.33578   0.65930   0.84227   1.000
    O461    O    0.53139   0.44664   0.82645   1.000
    O462    O    0.59560   0.37991   0.83316   1.000
    O463    O    0.43877   0.47315   0.82773   1.000
    O464    O    0.35556   0.42402   0.83722   1.000
    O465    O    0.74323   0.27108   0.86076   1.000
    O466    O    0.86845   0.03908   0.87122   1.000
    O467    O    0.05150   0.97587   0.85587   1.000
    O468    O    0.12951   0.04623   0.87120   1.000
    O469    O    0.46794   0.55769   0.83860   1.000
    O470    O    0.56102   0.53252   0.84044   1.000
    O471    O    0.21372   0.31047   0.86656   1.000
    O472    O    0.72674   0.70591   0.85109   1.000
    O473    O    0.76853   0.76612   0.85899   1.000
    O474    O    0.26531   0.69795   0.85554   1.000
    O475    O    0.19691   0.73402   0.86711   1.000
    O476    O    0.64239   0.38669   0.88310   1.000
    O477    O    0.33314   0.41108   0.89032   1.000
    O478    O    0.80547   0.82087   0.87067   1.000
    O479    O    0.00440   0.92247   0.87051   1.000
    O480    O    0.70782   0.69062   0.90829   1.000
    O481    O    0.32014   0.71694   0.90663   1.000
    O482    O    0.13764   0.76875   0.88189   1.000
    O483    O    0.79152   0.81096   0.92407   1.000
    O484    O    0.18335   0.78912   0.92976   1.000
    O485    O    0.15894   0.09896   0.94585   1.000
    O486    O    0.84763   0.10087   0.94412   1.000
    O487    O    0.62771   0.45048   0.95769   1.000
    O488    O    0.36581   0.73719   0.95454   1.000
    O489    O    0.30659   0.77206   0.96929   1.000
    O490    O    0.69379   0.68076   0.96169   1.000
    O491    O    0.73058   0.73560   0.97336   1.000
    O492    O    0.50076   0.57670   0.96457   1.000
    O493    O    0.54954   0.52201   0.97653   1.000
    O494    O    0.77248   0.79573   0.98125   1.000
    O495    O    0.23820   0.80817   0.98085   1.000
    O496    O    0.93917   0.96944   0.99323   1.000
    O497    O    0.03307   0.94562   0.99679   1.000
    O498    O    0.50033   0.47907   0.77259   1.000
    O499    O    0.55028   0.47777   0.68873   1.000
    O500    O    0.50002   0.52496   0.89525   1.000
    O501    O    0.45047   0.52524   0.97994   1.000
    O502    O    0.04679   0.02557   0.14439   1.000
    O503    O    0.99847   0.02409   0.06099   1.000
    O504    O    0.00000   0.02093   0.72742   1.000
    O505    O    0.04996   0.02222   0.81128   1.000
    O506    O    0.00000   0.97506   0.60476   1.000
    O507    O    0.95047   0.97477   0.52005   1.000
    O508    O    0.54679   0.47443   0.35561   1.000
    O509    O    0.49847   0.47590   0.43900   1.000
    O510    O    0.44973   0.52223   0.31127   1.000
    O511    O    0.49968   0.52093   0.22742   1.000
    O512    O    0.54954   0.47476   0.02005   1.000
    O513    O    0.49999   0.47504   0.10475   1.000
    O514    O    0.95322   0.97444   0.85561   1.000
    O515    O    0.00154   0.97590   0.93901   1.000
    O516    O    0.04801   0.97922   0.18898   1.000
    O517    O    0.99967   0.97907   0.27258   1.000
    O518    O    0.04954   0.02522   0.47995   1.000
    O519    O    0.99998   0.02494   0.39524   1.000
    O520    O    0.45322   0.52557   0.64435   1.000
    O521    O    0.50155   0.52410   0.56095   1.000
loop_
    _geom_bond_atom_site_label_1
    _geom_bond_atom_site_label_2
    _geom_bond_distance
    _geom_bond_site_symmetry_2
    _ccdc_geom_bond_type
    C145   O234      0.70163      .   S
    C146   O234      0.70163      .   S
    C145   O235      0.69492      .   S
    C144   O235      0.69492      .   S
    C145   O236      0.54378  1_554   S
    C60    O236      0.54378      .   S
    C10    O237      1.02272      .   S
    C205   O237      1.02272      .   S
    C10    O238      0.96813      .   S
    C213   O238      0.96813      .   S
    C10    O239      0.96864  1_554   S
    C194   O239      0.96864      .   S
    C141   O240      0.70227      .   S
    C135   O240      0.70227      .   S
    C141   O241      0.69587      .   S
    C140   O241      0.69587      .   S
    C141   O242      0.54425  1_554   S
    C58    O242      0.54425      .   S
    C214   O243      0.63587  1_554   S
    C134   O243      0.63587      .   S
    C214   O244      1.07562      .   S
    C16    O244      1.07562  1_566   S
    C212   O245      0.63141  1_554   S
    C147   O245      0.63141      .   S
    C212   O246      1.06886      .   S
    C16    O246      1.06886  1_666   S
    C99    O247      0.64661      .   S
    C187   O247      0.64661      .   S
    C99    O248      0.74731  1_554   S
    C98    O248      0.74731      .   S
    C99    O249      0.63104      .   S
    C182   O249      0.63104  1_556   S
    C86    O250      0.64552      .   S
    C178   O250      0.64552      .   S
    C86    O251      0.74965  1_554   S
    C87    O251      0.74965      .   S
    C86    O252      0.63259      .   S
    C184   O252      0.63259  1_556   S
    C59    O253      0.54483      .   S
    C144   O253      0.54483      .   S
    C49    O254      0.48754      .   S
    C205   O254      0.48754      .   S
    C135   O255      0.70147      .   S
    C136   O255      0.70147      .   S
    C135   O256      0.75218      .   S
    C134   O256      0.75218  1_556   S
    C146   O257      0.70144      .   S
    C148   O257      0.70144      .   S
    C146   O258      0.74747      .   S
    C147   O258      0.74747  1_556   S
    C57    O259      0.54444      .   S
    C140   O259      0.54444      .   S
    C144   O260      0.69611      .   S
    C143   O260      0.69611      .   S
    C28    O261      0.54426      .   S
    C93    O261      0.54426  1_556   S
    C140   O262      0.70153      .   S
    C138   O262      0.70153      .   S
    C30    O263      0.54378      .   S
    C97    O263      0.54378  1_556   S
    C224   O264      0.64731      .   S
    C150   O264      0.64731      .   S
    C224   O265      0.96858      .   S
    C2     O265      0.96858  1_556   S
    C213   O266      0.64541      .   S
    C131   O266      0.64541      .   S
    C178   O267      0.96976      .   S
    C1     O267      0.96976  1_545   S
    C187   O268      0.96437      .   S
    C3     O268      0.96437  1_545   S
    C69    O269      0.54413      .   S
    C157   O269      0.54413      .   S
    C52    O270      0.54434      .   S
    C129   O270      0.54434      .   S
    C136   O271      0.54436      .   S
    C55    O271      0.54436      .   S
    C136   O272      0.69558      .   S
    C137   O272      0.69558      .   S
    C148   O273      0.54422      .   S
    C61    O273      0.54422      .   S
    C148   O274      0.69539      .   S
    C149   O274      0.69539      .   S
    C176   O275      0.48742      .   S
    C20    O275      0.48742      .   S
    C176   O276      1.01931      .   S
    C3     O276      1.01931      .   S
    C138   O277      0.70221      .   S
    C137   O277      0.70221      .   S
    C138   O278      0.74998      .   S
    C139   O278      0.74998      .   S
    C143   O279      0.70560      .   S
    C149   O279      0.70560      .   S
    C143   O280      0.74912      .   S
    C142   O280      0.74912      .   S
    C150   O281      0.63028      .   S
    C230   O281      0.63028      .   S
    C150   O282      0.74943      .   S
    C151   O282      0.74943      .   S
    C131   O283      0.63200      .   S
    C210   O283      0.63200      .   S
    C131   O284      0.74956      .   S
    C130   O284      0.74956      .   S
    C216   O285      1.06572      .   S
    C8     O285      1.06572      .   S
    C216   O286      0.63163      .   S
    C142   O286      0.63163      .   S
    C211   O287      1.07173      .   S
    C8     O287      1.07173      .   S
    C211   O288      0.63243      .   S
    C139   O288      0.63243      .   S
    C137   O289      0.54432      .   S
    C56    O289      0.54432      .   S
    C149   O290      0.54421      .   S
    C62    O290      0.54421      .   S
    C157   O291      0.70160      .   S
    C151   O291      0.70160      .   S
    C157   O292      0.69567      .   S
    C156   O292      0.69567      .   S
    C8     O293      1.06670      .   S
    C230   O293      1.06670      .   S
    C8     O294      1.06885      .   S
    C210   O294      1.06885      .   S
    C3     O295      1.01789  1_545   S
    C219   O295      1.01789      .   S
    C3     O296      0.96525      .   S
    C233   O296      0.96525      .   S
    C1     O297      0.97000      .   S
    C222   O297      0.97000      .   S
    C129   O298      0.70194      .   S
    C130   O298      0.70194      .   S
    C129   O299      0.69567      .   S
    C128   O299      0.69567      .   S
    C139   O300      0.64538      .   S
    C207   O300      0.64538      .   S
    C142   O301      0.64585      .   S
    C218   O301      0.64585      .   S
    C68    O302      0.54419      .   S
    C156   O302      0.54419      .   S
    C51    O303      0.54429      .   S
    C128   O303      0.54429      .   S
    C63    O304      0.48751      .   S
    C219   O304      0.48751      .   S
    C151   O305      0.70178      .   S
    C152   O305      0.70178      .   S
    C130   O306      0.70168      .   S
    C132   O306      0.70168      .   S
    C156   O307      0.70168      .   S
    C154   O307      0.70168      .   S
    C128   O308      0.70169      .   S
    C127   O308      0.70169      .   S
    C233   O309      0.64638      .   S
    C166   O309      0.64638      .   S
    C222   O310      0.64578      .   S
    C163   O310      0.64578      .   S
    C207   O311      0.97021      .   S
    C5     O311      0.97021      .   S
    C218   O312      0.96524      .   S
    C7     O312      0.96524      .   S
    C77    O313      0.54423      .   S
    C173   O313      0.54423      .   S
    C152   O314      0.54404      .   S
    C66    O314      0.54404      .   S
    C152   O315      0.69565      .   S
    C153   O315      0.69565      .   S
    C71    O316      0.54434      .   S
    C161   O316      0.54434      .   S
    C132   O317      0.54420      .   S
    C53    O317      0.54420      .   S
    C132   O318      0.69566      .   S
    C133   O318      0.69566      .   S
    C204   O319      0.48757      .   S
    C48    O319      0.48757      .   S
    C204   O320      1.01825      .   S
    C5     O320      1.01825      .   S
    C154   O321      0.70194      .   S
    C153   O321      0.70194      .   S
    C154   O322      0.74957      .   S
    C155   O322      0.74957      .   S
    C127   O323      0.70161      .   S
    C133   O323      0.70161      .   S
    C127   O324      0.74944      .   S
    C126   O324      0.74944      .   S
    C166   O325      0.63161      .   S
    C231   O325      0.63161      .   S
    C166   O326      0.74745      .   S
    C167   O326      0.74745      .   S
    C163   O327      0.63240      .   S
    C226   O327      0.63240      .   S
    C163   O328      0.74971      .   S
    C162   O328      0.74971      .   S
    C225   O329      1.06857      .   S
    C12    O329      1.06857  1_545   S
    C225   O330      0.63200      .   S
    C155   O330      0.63200      .   S
    C215   O331      1.06645      .   S
    C12    O331      1.06645  1_645   S
    C215   O332      0.63028      .   S
    C126   O332      0.63028      .   S
    C153   O333      0.54434      .   S
    C67    O333      0.54434      .   S
    C5     O334      0.96987      .   S
    C193   O334      0.96987      .   S
    C7     O335      1.01908      .   S
    C191   O335      1.01908      .   S
    C7     O336      0.96474      .   S
    C202   O336      0.96474      .   S
    C12    O337      1.07180  1_655   S
    C226   O337      1.07180      .   S
    C12    O338      1.06546      .   S
    C231   O338      1.06546      .   S
    C133   O339      0.54388      .   S
    C54    O339      0.54388      .   S
    C173   O340      0.70189      .   S
    C167   O340      0.70189      .   S
    C173   O341      0.69537      .   S
    C172   O341      0.69537      .   S
    C161   O342      0.70193      .   S
    C162   O342      0.70193      .   S
    C161   O343      0.69554      .   S
    C160   O343      0.69554      .   S
    C155   O344      0.64541      .   S
    C228   O344      0.64541      .   S
    C126   O345      0.64726      .   S
    C209   O345      0.64726      .   S
    C76    O346      0.54450      .   S
    C172   O346      0.54450      .   S
    C35    O347      0.48741      .   S
    C191   O347      0.48741      .   S
    C167   O348      0.70147      .   S
    C168   O348      0.70147      .   S
    C162   O349      0.70207      .   S
    C164   O349      0.70207      .   S
    C70    O350      0.54433      .   S
    C160   O350      0.54433      .   S
    C172   O351      0.70146      .   S
    C170   O351      0.70146      .   S
    C160   O352      0.70148      .   S
    C159   O352      0.70148      .   S
    C202   O353      0.64654      .   S
    C123   O353      0.64654      .   S
    C193   O354      0.64551      .   S
    C110   O354      0.64551      .   S
    C228   O355      0.96814      .   S
    C14    O355      0.96814      .   S
    C209   O356      0.96853      .   S
    C6     O356      0.96853  1_545   S
    C45    O357      0.54352      .   S
    C121   O357      0.54352      .   S
    C164   O358      0.54447      .   S
    C72    O358      0.54447      .   S
    C164   O359      0.69588      .   S
    C165   O359      0.69588      .   S
    C43    O360      0.54434      .   S
    C117   O360      0.54434      .   S
    C168   O361      0.54431      .   S
    C74    O361      0.54431      .   S
    C168   O362      0.69490      .   S
    C169   O362      0.69490      .   S
    C220   O363      0.48752      .   S
    C64    O363      0.48752      .   S
    C220   O364      1.02266      .   S
    C14    O364      1.02266  1_565   S
    C170   O365      0.70161      .   S
    C169   O365      0.70161      .   S
    C170   O366      0.74734      .   S
    C171   O366      0.74734      .   S
    C159   O367      0.70231      .   S
    C165   O367      0.70231      .   S
    C159   O368      0.74973      .   S
    C158   O368      0.74973      .   S
    C110   O369      0.63259      .   S
    C199   O369      0.63259      .   S
    C110   O370      0.74973      .   S
    C111   O370      0.74973      .   S
    C123   O371      0.63114      .   S
    C197   O371      0.63114      .   S
    C123   O372      0.74735      .   S
    C122   O372      0.74735      .   S
    C227   O373      1.06880      .   S
    C17    O373      1.06880      .   S
    C227   O374      0.63113      .   S
    C171   O374      0.63113      .   S
    C229   O375      1.07581      .   S
    C17    O375      1.07581      .   S
    C229   O376      0.63259      .   S
    C158   O376      0.63259      .   S
    C165   O377      0.54434      .   S
    C73    O377      0.54434      .   S
    C14    O378      0.96829  1_565   S
    C179   O378      0.96829      .   S
    C169   O379      0.54387      .   S
    C75    O379      0.54387      .   S
    C17    O380      1.07585      .   S
    C199   O380      1.07585      .   S
    C17    O381      1.06882      .   S
    C197   O381      1.06882      .   S
    C121   O382      0.70186      .   S
    C122   O382      0.70186      .   S
    C121   O383      0.69504      .   S
    C120   O383      0.69504      .   S
    C6     O384      1.02279  1_545   S
    C190   O384      1.02279      .   S
    C6     O385      0.96816      .   S
    C198   O385      0.96816      .   S
    C117   O386      0.70228      .   S
    C111   O386      0.70228      .   S
    C117   O387      0.69587      .   S
    C116   O387      0.69587      .   S
    C171   O388      0.64654      .   S
    C232   O388      0.64654      .   S
    C158   O389      0.64551      .   S
    C223   O389      0.64551      .   S
    C44    O390      0.54432      .   S
    C120   O390      0.54432      .   S
    C34    O391      0.48739      .   S
    C190   O391      0.48739      .   S
    C111   O392      0.70149      .   S
    C112   O392      0.70149      .   S
    C122   O393      0.70146      .   S
    C124   O393      0.70146      .   S
    C42    O394      0.54447      .   S
    C116   O394      0.54447      .   S
    C120   O395      0.70138      .   S
    C119   O395      0.70138      .   S
    C116   O396      0.70152      .   S
    C114   O396      0.70152      .   S
    C179   O397      0.64788      .   S
    C78    O397      0.64788      .   S
    C198   O398      0.64539      .   S
    C107   O398      0.64539      .   S
    C223   O399      0.96987      .   S
    C13    O399      0.96987      .   S
    C232   O400      0.96474      .   S
    C15    O400      0.96474      .   S
    C24    O401      0.54413      .   S
    C85    O401      0.54413      .   S
    C37    O402      0.54350      .   S
    C105   O402      0.54350      .   S
    C112   O403      0.54434      .   S
    C40    O403      0.54434      .   S
    C112   O404      0.69558      .   S
    C113   O404      0.69558      .   S
    C124   O405      0.54427      .   S
    C46    O405      0.54427      .   S
    C124   O406      0.69537      .   S
    C125   O406      0.69537      .   S
    C221   O407      0.48732      .   S
    C65    O407      0.48732      .   S
    C221   O408      1.01950      .   S
    C15    O408      1.01950      .   S
    C114   O409      0.70222      .   S
    C113   O409      0.70222      .   S
    C114   O410      0.74997      .   S
    C115   O410      0.74997      .   S
    C119   O411      0.70191      .   S
    C125   O411      0.70191      .   S
    C119   O412      0.74748      .   S
    C118   O412      0.74748      .   S
    C78    O413      0.63025      .   S
    C185   O413      0.63025      .   S
    C78    O414      0.74918      .   S
    C79    O414      0.74918      .   S
    C107   O415      0.63192      .   S
    C195   O415      0.63192      .   S
    C107   O416      0.74954      .   S
    C106   O416      0.74954      .   S
    C201   O417      1.06580      .   S
    C4     O417      1.06580      .   S
    C201   O418      0.63165      .   S
    C118   O418      0.63165      .   S
    C196   O419      1.07163      .   S
    C4     O419      1.07163  1_455   S
    C196   O420      0.63244      .   S
    C115   O420      0.63244      .   S
    C113   O421      0.54428      .   S
    C41    O421      0.54428      .   S
    C125   O422      0.54424      .   S
    C47    O422      0.54424      .   S
    C85    O423      0.70116      .   S
    C79    O423      0.70116      .   S
    C85    O424      0.69569      .   S
    C84    O424      0.69569      .   S
    C4     O425      1.06615  1_465   S
    C185   O425      1.06615      .   S
    C4     O426      1.06880  1_565   S
    C195   O426      1.06880      .   S
    C15    O427      0.96525      .   S
    C188   O427      0.96525      .   S
    C13    O428      1.01827      .   S
    C174   O428      1.01827      .   S
    C13    O429      0.97004      .   S
    C177   O429      0.97004      .   S
    C105   O430      0.70244      .   S
    C106   O430      0.70244      .   S
    C105   O431      0.69594      .   S
    C104   O431      0.69594      .   S
    C115   O432      0.64569      .   S
    C192   O432      0.64569      .   S
    C118   O433      0.64585      .   S
    C203   O433      0.64585      .   S
    C23    O434      0.54420      .   S
    C84    O434      0.54420      .   S
    C36    O435      0.54410      .   S
    C104   O435      0.54410      .   S
    C18    O436      0.48751      .   S
    C174   O436      0.48751      .   S
    C79    O437      0.70247      .   S
    C80    O437      0.70247      .   S
    C106   O438      0.70169      .   S
    C108   O438      0.70169      .   S
    C84    O439      0.70168      .   S
    C82    O439      0.70168      .   S
    C104   O440      0.70170      .   S
    C103   O440      0.70170      .   S
    C188   O441      0.64592      .   S
    C94    O441      0.64592      .   S
    C177   O442      0.64575      .   S
    C91    O442      0.64575      .   S
    C192   O443      0.97004      .   S
    C9     O443      0.97004      .   S
    C203   O444      0.96511      .   S
    C11    O444      0.96511      .   S
    C32    O445      0.54430      .   S
    C101   O445      0.54430      .   S
    C80    O446      0.54405      .   S
    C21    O446      0.54405      .   S
    C80    O447      0.69567      .   S
    C81    O447      0.69567      .   S
    C26    O448      0.54426      .   S
    C89    O448      0.54426      .   S
    C108   O449      0.54425      .   S
    C38    O449      0.54425      .   S
    C108   O450      0.69569      .   S
    C109   O450      0.69569      .   S
    C189   O451      0.48748      .   S
    C33    O451      0.48748      .   S
    C189   O452      1.01457  1_455   S
    C9     O452      1.01457  1_565   S
    C82    O453      0.70196      .   S
    C81    O453      0.70196      .   S
    C82    O454      0.74955      .   S
    C83    O454      0.74955      .   S
    C103   O455      0.70166      .   S
    C109   O455      0.70166      .   S
    C103   O456      0.74916      .   S
    C102   O456      0.74916      .   S
    C94    O457      0.63158      .   S
    C186   O457      0.63158      .   S
    C94    O458      0.74746      .   S
    C95    O458      0.74746      .   S
    C91    O459      0.63239      .   S
    C181   O459      0.63239      .   S
    C91    O460      0.74994      .   S
    C90    O460      0.74994      .   S
    C180   O461      1.06882      .   S
    C0     O461      1.06882      .   S
    C180   O462      0.63198      .   S
    C83    O462      0.63198      .   S
    C200   O463      1.06671      .   S
    C0     O463      1.06671      .   S
    C200   O464      0.62970      .   S
    C102   O464      0.62970      .   S
    C81    O465      0.54375      .   S
    C22    O465      0.54375      .   S
    C9     O466      0.96977  1_565   S
    C208   O466      0.96977      .   S
    C11    O467      1.01900      .   S
    C206   O467      1.01900      .   S
    C11    O468      0.96473  1_565   S
    C217   O468      0.96473      .   S
    C0     O469      1.07174      .   S
    C181   O469      1.07174      .   S
    C0     O470      1.06569      .   S
    C186   O470      1.06569      .   S
    C109   O471      0.54414      .   S
    C39    O471      0.54414      .   S
    C101   O472      0.70190      .   S
    C95    O472      0.70190      .   S
    C101   O473      0.69536      .   S
    C100   O473      0.69536      .   S
    C89    O474      0.70221      .   S
    C90    O474      0.70221      .   S
    C89    O475      0.69558      .   S
    C88    O475      0.69558      .   S
    C83    O476      0.64536      .   S
    C183   O476      0.64536      .   S
    C102   O477      0.64813      .   S
    C194   O477      0.64813      .   S
    C31    O478      0.54422      .   S
    C100   O478      0.54422      .   S
    C50    O479      0.48741      .   S
    C206   O479      0.48741      .   S
    C95    O480      0.70145      .   S
    C96    O480      0.70145      .   S
    C90    O481      0.70153      .   S
    C92    O481      0.70153      .   S
    C25    O482      0.54433      .   S
    C88    O482      0.54433      .   S
    C100   O483      0.70144      .   S
    C98    O483      0.70144      .   S
    C88    O484      0.70150      .   S
    C87    O484      0.70150      .   S
    C217   O485      0.64606      .   S
    C147   O485      0.64606      .   S
    C208   O486      0.63975      .   S
    C134   O486      0.63975      .   S
    C183   O487      0.96819      .   S
    C2     O487      0.96819      .   S
    C92    O488      0.54447      .   S
    C27    O488      0.54447      .   S
    C92    O489      0.69590      .   S
    C93    O489      0.69590      .   S
    C96    O490      0.54427      .   S
    C29    O490      0.54427      .   S
    C96    O491      0.69489      .   S
    C97    O491      0.69489      .   S
    C175   O492      0.48751      .   S
    C19    O492      0.48751      .   S
    C175   O493      1.02294      .   S
    C2     O493      1.02294      .   S
    C98    O494      0.70162      .   S
    C97    O494      0.70162      .   S
    C87    O495      0.70231      .   S
    C93    O495      0.70231      .   S
    C182   O496      1.06868      .   S
    C16    O496      1.06868      .   S
    C184   O497      1.07547      .   S
    C16    O497      1.07547  1_655   S
    C174   O498      1.04165      .   S
    C0     O498      1.04165      .   S
    C174   O499      1.01836      .   S
    C15    O499      1.01836      .   S
    C175   O500      1.03851      .   S
    C0     O500      1.03851      .   S
    C175   O501      1.02517      .   S
    C10    O501      1.02517  1_554   S
    C176   O502      1.02371  1_655   S
    C1     O502      1.02371      .   S
    C176   O503      1.03453      .   S
    C16    O503      1.03453  1_566   S
    C189   O504      1.04164      .   S
    C4     O504      1.04164  1_565   S
    C189   O505      1.02192      .   S
    C11    O505      1.02192  1_565   S
    C190   O506      1.03860      .   S
    C4     O506      1.03860      .   S
    C190   O507      1.02506  1_455   S
    C14    O507      1.02506      .   S
    C191   O508      1.02387      .   S
    C5     O508      1.02387      .   S
    C191   O509      1.03453      .   S
    C17    O509      1.03453      .   S
    C204   O510      1.01836      .   S
    C7     O510      1.01836      .   S
    C204   O511      1.04157      .   S
    C8     O511      1.04157      .   S
    C205   O512      1.02492      .   S
    C2     O512      1.02492  1_556   S
    C205   O513      1.03885      .   S
    C8     O513      1.03885      .   S
    C206   O514      1.02373  1_455   S
    C9     O514      1.02373      .   S
    C206   O515      1.03437      .   S
    C16    O515      1.03437  1_655   S
    C219   O516      1.01824  1_655   S
    C1     O516      1.01824  1_545   S
    C219   O517      1.04165      .   S
    C12    O517      1.04165  1_545   S
    C220   O518      1.02521  1_655   S
    C6     O518      1.02521      .   S
    C220   O519      1.03860      .   S
    C12    O519      1.03860      .   S
    C221   O520      1.02429      .   S
    C13    O520      1.02429      .   S
    C221   O521      1.03377      .   S
    C17    O521      1.03377      .   S
