# CIF file generated by openbabel 2.4.90, see http://openbabel.sf.net
data_I
_chemical_name_common ''
_cell_length_a 8.651
_cell_length_b 15.345
_cell_length_c 17.421
_cell_angle_alpha 90
_cell_angle_beta 90
_cell_angle_gamma 90.001
_space_group_name_H-M_alt 'P 1'
_space_group_name_Hall 'P 1'
loop_
    _symmetry_equiv_pos_as_xyz
    x,y,z
loop_
    _atom_site_label
    _atom_site_type_symbol
    _atom_site_fract_x
    _atom_site_fract_y
    _atom_site_fract_z
    _atom_site_occupancy
    H0      H    0.44807   0.00726   0.59851   1.000
    H1      H    0.98058   0.06806   0.55363   1.000
    H2      H    0.05194   0.50725   0.40146   1.000
    H3      H    0.51942   0.56806   0.44636   1.000
    H4      H    0.55194   0.99276   0.09853   1.000
    H5      H    0.01944   0.93196   0.05364   1.000
    H6      H    0.94807   0.49277   0.90145   1.000
    H7      H    0.48058   0.43197   0.94634   1.000
    H8      H    0.55194   0.99277   0.40148   1.000
    H9      H    0.01943   0.93197   0.44635   1.000
    H10     H    0.94807   0.49277   0.59852   1.000
    H11     H    0.48059   0.43196   0.55363   1.000
    H12     H    0.44806   0.00726   0.90146   1.000
    H13     H    0.98057   0.06806   0.94634   1.000
    H14     H    0.05194   0.50725   0.09853   1.000
    H15     H    0.51942   0.56805   0.05363   1.000
    C16     C    0.32779   0.11717   0.53823   1.000
    C17     C    0.34302   0.03934   0.58007   1.000
    C18     C    0.19259   0.00999   0.59112   1.000
    C19     C    0.17221   0.61715   0.46176   1.000
    C20     C    0.15698   0.53933   0.41991   1.000
    C21     C    0.30742   0.50999   0.40887   1.000
    C22     C    0.67222   0.88285   0.03824   1.000
    C23     C    0.65699   0.96068   0.08008   1.000
    C24     C    0.80742   0.99003   0.09112   1.000
    C25     C    0.82779   0.38287   0.96174   1.000
    C26     C    0.84302   0.46070   0.91990   1.000
    C27     C    0.69259   0.49004   0.90885   1.000
    C28     C    0.67222   0.88286   0.46176   1.000
    C29     C    0.65699   0.96069   0.41992   1.000
    C30     C    0.80742   0.99003   0.40887   1.000
    C31     C    0.82780   0.38286   0.53823   1.000
    C32     C    0.84303   0.46069   0.58008   1.000
    C33     C    0.69259   0.49003   0.59112   1.000
    C34     C    0.32778   0.11717   0.96174   1.000
    C35     C    0.34301   0.03934   0.91990   1.000
    C36     C    0.19258   0.00999   0.90886   1.000
    C37     C    0.17221   0.61716   0.03824   1.000
    C38     C    0.15698   0.53933   0.08008   1.000
    C39     C    0.30742   0.50999   0.09113   1.000
    C40     C    0.44993   0.20999   0.25000   1.000
    C41     C    0.05003   0.70994   0.74998   1.000
    C42     C    0.55008   0.79002   0.74998   1.000
    C43     C    0.94996   0.29007   0.24999   1.000
    N44     N    0.09843   0.06987   0.55634   1.000
    N45     N    0.17719   0.13528   0.52360   1.000
    N46     N    0.40157   0.56987   0.44364   1.000
    N47     N    0.32280   0.63527   0.47639   1.000
    N48     N    0.90158   0.93015   0.05636   1.000
    N49     N    0.82282   0.86474   0.02361   1.000
    N50     N    0.59843   0.43015   0.94363   1.000
    N51     N    0.67720   0.36475   0.97638   1.000
    N52     N    0.90158   0.93015   0.44365   1.000
    N53     N    0.82281   0.86474   0.47639   1.000
    N54     N    0.59844   0.43015   0.55635   1.000
    N55     N    0.67721   0.36475   0.52359   1.000
    N56     N    0.09842   0.06987   0.94363   1.000
    N57     N    0.17719   0.13528   0.97638   1.000
    N58     N    0.40157   0.56987   0.05635   1.000
    N59     N    0.32280   0.63527   0.02360   1.000
    O60     O    0.39269   0.18924   0.31586   1.000
    O61     O    0.10730   0.68923   0.68412   1.000
    O62     O    0.60730   0.81079   0.81585   1.000
    O63     O    0.89270   0.31079   0.18413   1.000
    O64     O    0.60730   0.81079   0.68412   1.000
    O65     O    0.89270   0.31079   0.31586   1.000
    O66     O    0.39269   0.18924   0.18413   1.000
    O67     O    0.10730   0.68923   0.81585   1.000
    O68     O    0.57959   0.25528   0.24999   1.000
    O69     O    0.92042   0.75527   0.74998   1.000
    O70     O    0.42040   0.74475   0.74998   1.000
    O71     O    0.07958   0.24476   0.24999   1.000
loop_
    _geom_bond_atom_site_label_1
    _geom_bond_atom_site_label_2
    _geom_bond_distance
    _geom_bond_site_symmetry_2
    _ccdc_geom_bond_type
    N59    C37       1.35629      .   S
    N59    N58       1.34058      .   S
    N49    C22       1.35628      .   S
    N49    N48       1.34060      .   S
    C37    C38       1.40535      .   S
    C22    C23       1.40535      .   S
    H15    N58       1.02101      .   S
    H5     N48       1.02101  1_455   S
    N58    C39       1.36923      .   S
    N48    C24       1.36924      .   S
    C38    C39       1.39048      .   S
    C38    H14       1.08231      .   S
    C23    C24       1.39048      .   S
    C23    H4        1.08232      .   S
    O63    C43       1.28967      .   S
    O66    C40       1.28968      .   S
    C43    O71       1.31944  1_655   S
    C43    O65       1.28968      .   S
    O68    C40       1.31953      .   S
    C40    O60       1.28968      .   S
    H2     C20       1.08230      .   S
    H8     C29       1.08232      .   S
    C30    C29       1.39049      .   S
    C30    N52       1.36923      .   S
    C21    C20       1.39049      .   S
    C21    N46       1.36923      .   S
    C20    C19       1.40535      .   S
    C29    C28       1.40536      .   S
    N46    H3        1.02100      .   S
    N46    N47       1.34059      .   S
    N52    H9        1.02101  1_655   S
    N52    N53       1.34059      .   S
    C19    N47       1.35629      .   S
    C28    N53       1.35629      .   S
    N55    C31       1.35629      .   S
    N55    N54       1.34059      .   S
    N45    C16       1.35628      .   S
    N45    N44       1.34059      .   S
    C16    C17       1.40537      .   S
    C31    C32       1.40537      .   S
    H1     N44       1.02099  1_655   S
    H11    N54       1.02101      .   S
    N44    C18       1.36925      .   S
    N54    C33       1.36923      .   S
    C17    C18       1.39050      .   S
    C17    H0        1.08230      .   S
    C32    C33       1.39049      .   S
    C32    H10       1.08229      .   S
    O64    C42       1.28968      .   S
    O61    C41       1.28967      .   S
    O70    C42       1.31955      .   S
    C41    O69       1.31943  1_455   S
    C41    O67       1.28968      .   S
    C42    O62       1.28968      .   S
    H6     C26       1.08230      .   S
    H12    C35       1.08230      .   S
    C27    C26       1.39049      .   S
    C27    N50       1.36923      .   S
    C36    C35       1.39048      .   S
    C36    N56       1.36925      .   S
    C26    C25       1.40536      .   S
    C35    C34       1.40537      .   S
    N50    H7        1.02100      .   S
    N50    N51       1.34060      .   S
    N56    H13       1.02099  1_455   S
    N56    N57       1.34060      .   S
    C34    N57       1.35627      .   S
    C25    N51       1.35628      .   S
