# CIF file generated by openbabel 2.4.90, see http://openbabel.sf.net
data_I
_chemical_name_common ''
_cell_length_a 8.651
_cell_length_b 15.345
_cell_length_c 17.421
_cell_angle_alpha 90
_cell_angle_beta 90
_cell_angle_gamma 90.001
_space_group_name_H-M_alt 'P 1'
_space_group_name_Hall 'P 1'
loop_
    _symmetry_equiv_pos_as_xyz
    x,y,z
loop_
    _atom_site_label
    _atom_site_type_symbol
    _atom_site_fract_x
    _atom_site_fract_y
    _atom_site_fract_z
    _atom_site_occupancy
    La0     La   0.85580   0.76476   0.61108   1.000
    La1     La   0.35579   0.73524   0.88889   1.000
    La2     La   0.14421   0.23526   0.11109   1.000
    La3     La   0.35579   0.73524   0.61108   1.000
    La4     La   0.14420   0.23526   0.38890   1.000
    La5     La   0.64421   0.26478   0.11109   1.000
    La6     La   0.85579   0.76476   0.88889   1.000
    La7     La   0.64421   0.26478   0.38890   1.000
