# CIF file generated by openbabel 2.4.90, see http://openbabel.sf.net
data_I
_chemical_name_common ''
_cell_length_a 8.651
_cell_length_b 15.345
_cell_length_c 17.421
_cell_angle_alpha 90
_cell_angle_beta 90
_cell_angle_gamma 90.001
_space_group_name_H-M_alt 'P 1'
_space_group_name_Hall 'P 1'
loop_
    _symmetry_equiv_pos_as_xyz
    x,y,z
loop_
    _atom_site_label
    _atom_site_type_symbol
    _atom_site_fract_x
    _atom_site_fract_y
    _atom_site_fract_z
    _atom_site_occupancy
    C0      C    0.44499   0.17463   0.50291   1.000
    C1      C    0.13376   0.92633   0.62273   1.000
    C2      C    0.05501   0.67461   0.49708   1.000
    C3      C    0.36626   0.42635   0.37726   1.000
    C4      C    0.55501   0.82540   0.00000   1.000
    C5      C    0.86625   0.07369   0.12273   1.000
    C6      C    0.94500   0.32541   0.99709   1.000
    C7      C    0.63375   0.57367   0.87725   1.000
    C8      C    0.55502   0.82539   0.49707   1.000
    C9      C    0.86625   0.07369   0.37726   1.000
    C10     C    0.94499   0.32541   0.50290   1.000
    C11     C    0.63375   0.57367   0.62272   1.000
    C12     C    0.44499   0.17462   0.99709   1.000
    C13     C    0.13376   0.92633   0.87725   1.000
    C14     C    0.05500   0.67461   0.00000   1.000
    C15     C    0.36626   0.42635   0.12273   1.000
