# CIF file generated by openbabel 2.4.90, see http://openbabel.sf.net
data_I
_chemical_name_common ''
_cell_length_a 8.651
_cell_length_b 15.345
_cell_length_c 17.421
_cell_angle_alpha 90
_cell_angle_beta 90
_cell_angle_gamma 90.001
_space_group_name_H-M_alt 'P 1'
_space_group_name_Hall 'P 1'
loop_
    _symmetry_equiv_pos_as_xyz
    x,y,z
loop_
    _atom_site_label
    _atom_site_type_symbol
    _atom_site_fract_x
    _atom_site_fract_y
    _atom_site_fract_z
    _atom_site_occupancy
    Zr0     Zr   0.64421   0.26478   0.38890   1.000
    Zr1     Zr   0.85580   0.76476   0.61108   1.000
    Zr2     Zr   0.35579   0.73524   0.88889   1.000
    Zr3     Zr   0.14421   0.23526   0.11109   1.000
    Zr4     Zr   0.35579   0.73524   0.61108   1.000
    Zr5     Zr   0.14420   0.23526   0.38890   1.000
    Zr6     Zr   0.64421   0.26478   0.11109   1.000
    Zr7     Zr   0.85579   0.76476   0.88889   1.000
    N8      N    0.22395   0.06385   0.56307   1.000
    O9      O    0.19232   0.12456   0.50966   1.000
    N10     N    0.72395   0.43618   0.93690   1.000
    O11     O    0.69233   0.37547   0.99032   1.000
    N12     N    0.27605   0.56384   0.43691   1.000
    O13     O    0.30767   0.62455   0.49033   1.000
    N14     N    0.22394   0.06385   0.93690   1.000
    O15     O    0.19232   0.12456   0.99032   1.000
    N16     N    0.72396   0.43617   0.56307   1.000
    O17     O    0.69233   0.37547   0.50966   1.000
    N18     N    0.27605   0.56384   0.06308   1.000
    O19     O    0.30767   0.62455   0.00966   1.000
    N20     N    0.77606   0.93617   0.43692   1.000
    O21     O    0.80768   0.87546   0.49032   1.000
    N22     N    0.95374   0.28910   0.25000   1.000
    O23     O    0.86109   0.28845   0.30119   1.000
    O24     O    0.86110   0.28845   0.19880   1.000
    N25     N    0.54627   0.78909   0.74998   1.000
    O26     O    0.63891   0.78843   0.69879   1.000
    O27     O    0.63891   0.78843   0.80118   1.000
    N28     N    0.45373   0.21093   0.25000   1.000
    O29     O    0.36109   0.21159   0.19880   1.000
    O30     O    0.36109   0.21159   0.30119   1.000
    N31     N    0.04626   0.71092   0.74998   1.000
    O32     O    0.13891   0.71158   0.69879   1.000
    O33     O    0.13890   0.71158   0.80118   1.000
    N34     N    0.77606   0.93617   0.06308   1.000
    O35     O    0.80768   0.87546   0.00967   1.000
    C36     C    0.02537   0.69107   0.50892   1.000
    O37     O    0.11010   0.64797   0.48354   1.000
    O38     O    0.12846   0.71511   0.54046   1.000
    C39     C    0.11903   0.90418   0.62983   1.000
    O40     O    0.02061   0.87151   0.62260   1.000
    O41     O    0.20715   0.85423   0.62946   1.000
    O42     O    0.15630   0.96009   0.60741   1.000
    C43     C    0.61902   0.59582   0.62983   1.000
    O44     O    0.70714   0.64577   0.62946   1.000
    O45     O    0.52060   0.62849   0.62260   1.000
    O46     O    0.65629   0.53992   0.60741   1.000
    C47     C    0.52538   0.80893   0.50892   1.000
    O48     O    0.62847   0.78490   0.54046   1.000
    O49     O    0.61011   0.85204   0.48354   1.000
    C50     C    0.88097   0.09585   0.12984   1.000
    O51     O    0.84371   0.03993   0.10742   1.000
    O52     O    0.97940   0.12852   0.12261   1.000
    O53     O    0.79285   0.14580   0.12947   1.000
    C54     C    0.97463   0.30895   0.00893   1.000
    O55     O    0.88990   0.35205   0.98354   1.000
    O56     O    0.87154   0.28491   0.04046   1.000
    C57     C    0.47462   0.19109   0.00893   1.000
    O58     O    0.37154   0.21512   0.04046   1.000
    O59     O    0.38989   0.14798   0.98354   1.000
    C60     C    0.38099   0.40420   0.12984   1.000
    O61     O    0.29286   0.35425   0.12947   1.000
    O62     O    0.47941   0.37153   0.12261   1.000
    O63     O    0.34372   0.46011   0.10742   1.000
    C64     C    0.61902   0.59582   0.87014   1.000
    O65     O    0.65629   0.53992   0.89256   1.000
    O66     O    0.70714   0.64578   0.87050   1.000
    O67     O    0.52059   0.62849   0.87736   1.000
    C68     C    0.02537   0.69108   0.99009   1.000
    O69     O    0.11010   0.64797   0.01559   1.000
    O70     O    0.12846   0.71511   0.95903   1.000
    C71     C    0.52538   0.80893   0.99009   1.000
    O72     O    0.61011   0.85204   0.01560   1.000
    O73     O    0.62847   0.78490   0.95903   1.000
    C74     C    0.11903   0.90418   0.87014   1.000
    O75     O    0.02061   0.87150   0.87737   1.000
    O76     O    0.20715   0.85423   0.87050   1.000
    O77     O    0.15629   0.96009   0.89256   1.000
    C78     C    0.88097   0.09584   0.37015   1.000
    O79     O    0.84371   0.03993   0.39257   1.000
    O80     O    0.97940   0.12852   0.37738   1.000
    O81     O    0.79285   0.14580   0.37052   1.000
    C82     C    0.38099   0.40420   0.37015   1.000
    O83     O    0.47941   0.37153   0.37738   1.000
    O84     O    0.29286   0.35425   0.37052   1.000
    O85     O    0.34372   0.46011   0.39257   1.000
    C86     C    0.47462   0.19109   0.49106   1.000
    O87     O    0.37153   0.21513   0.45952   1.000
    O88     O    0.38990   0.14798   0.51644   1.000
    C89     C    0.97463   0.30895   0.49106   1.000
    O90     O    0.87154   0.28491   0.45952   1.000
    O91     O    0.88990   0.35205   0.51644   1.000
    O92     O    0.47928   0.78845   0.53594   1.000
    O93     O    0.49055   0.77280   0.70702   1.000
    O94     O    0.52073   0.21157   0.03595   1.000
    O95     O    0.50945   0.22723   0.20704   1.000
    O96     O    0.02073   0.28847   0.03595   1.000
    O97     O    0.47928   0.78845   0.96355   1.000
    O98     O    0.49054   0.77280   0.79294   1.000
    O99     O    0.52072   0.21157   0.46404   1.000
    O100    O    0.50945   0.22723   0.29296   1.000
    O101    O    0.97927   0.71155   0.96355   1.000
    O102    O    0.02073   0.28847   0.46404   1.000
    O103    O    0.00945   0.27281   0.29296   1.000
    O104    O    0.00945   0.27281   0.20704   1.000
    O105    O    0.99054   0.72721   0.79294   1.000
    O106    O    0.99055   0.72721   0.70702   1.000
    O107    O    0.97928   0.71155   0.53594   1.000
loop_
    _geom_bond_atom_site_label_1
    _geom_bond_atom_site_label_2
    _geom_bond_distance
    _geom_bond_site_symmetry_2
    _ccdc_geom_bond_type
    N8     O9        1.34480      .   S
    Zr5    O9        2.73578      .   S
    N10    O11       1.34484      .   S
    Zr6    O11       2.73589  1_554   S
    N12    O13       1.34476      .   S
    Zr4    O13       2.73561      .   S
    N14    O15       1.34487      .   S
    Zr3    O15       2.73598  1_554   S
    N16    O17       1.34479      .   S
    Zr0    O17       2.73568      .   S
    N18    O19       1.34484      .   S
    Zr2    O19       2.73588  1_556   S
    N20    O21       1.34479      .   S
    Zr1    O21       2.73572      .   S
    N22    O23       1.19907      .   S
    Zr0    O23       2.44686      .   S
    N22    O24       1.19906      .   S
    Zr6    O24       2.44684      .   S
    N25    O26       1.19907      .   S
    Zr1    O26       2.44691      .   S
    N25    O27       1.19906      .   S
    Zr7    O27       2.44688      .   S
    N28    O29       1.19907      .   S
    Zr3    O29       2.44687      .   S
    N28    O30       1.19907      .   S
    Zr5    O30       2.44689      .   S
    N31    O32       1.19909      .   S
    Zr4    O32       2.44688      .   S
    N31    O33       1.19907      .   S
    Zr2    O33       2.44685      .   S
    N34    O35       1.34487      .   S
    Zr7    O35       2.73600  1_556   S
    C36    O37       1.08179      .   S
    N12    O37       2.09460      .   S
    C36    O38       1.11046      .   S
    Zr4    O38       2.34023      .   S
    C39    O40       0.99610      .   S
    Zr1    O40       2.18082  1_655   S
    C39    O41       1.08112      .   S
    Zr4    O41       2.25607      .   S
    C39    O42       0.99631      .   S
    N8     O42       1.86397  1_545   S
    C43    O44       1.08116      .   S
    Zr1    O44       2.25613      .   S
    C43    O45       0.99609      .   S
    Zr4    O45       2.18091      .   S
    C43    O46       0.99618      .   S
    N16    O46       1.86376      .   S
    C47    O48       1.11049      .   S
    Zr1    O48       2.34027      .   S
    C47    O49       1.08181      .   S
    N20    O49       2.09462      .   S
    C50    O51       0.99631      .   S
    N34    O51       1.86396  1_565   S
    C50    O52       0.99610      .   S
    Zr3    O52       2.18079  1_455   S
    C50    O53       1.08109      .   S
    Zr6    O53       2.25602      .   S
    C54    O55       1.08184  1_554   S
    N10    O55       2.09469      .   S
    C54    O56       1.11048      .   S
    Zr6    O56       2.34025      .   S
    C57    O58       1.11051      .   S
    Zr3    O58       2.34029      .   S
    C57    O59       1.08185  1_554   S
    N14    O59       2.09472      .   S
    C60    O61       1.08115      .   S
    Zr3    O61       2.25612      .   S
    C60    O62       0.99609      .   S
    Zr6    O62       2.18089      .   S
    C60    O63       0.99618      .   S
    N18    O63       1.86376      .   S
    C64    O65       0.99618      .   S
    N10    O65       1.86377      .   S
    C64    O66       1.08114      .   S
    Zr7    O66       2.25610      .   S
    C64    O67       0.99609      .   S
    Zr2    O67       2.18090      .   S
    C68    O69       1.08270  1_556   S
    N18    O69       2.10045      .   S
    C68    O70       1.10635      .   S
    Zr2    O70       2.33585      .   S
    C71    O72       1.08272  1_556   S
    N34    O72       2.10046      .   S
    C71    O73       1.10638      .   S
    Zr7    O73       2.33588      .   S
    C74    O75       0.99610      .   S
    Zr7    O75       2.18079  1_655   S
    C74    O76       1.08109      .   S
    Zr2    O76       2.25602      .   S
    C74    O77       0.99631      .   S
    N14    O77       1.86397  1_545   S
    C78    O79       0.99631      .   S
    N20    O79       1.86397  1_565   S
    C78    O80       0.99610      .   S
    Zr5    O80       2.18081  1_455   S
    C78    O81       1.08111      .   S
    Zr0    O81       2.25606      .   S
    C82    O83       0.99608      .   S
    Zr0    O83       2.18087      .   S
    C82    O84       1.08116      .   S
    Zr5    O84       2.25612      .   S
    C82    O85       0.99618      .   S
    N12    O85       1.86376      .   S
    C86    O87       1.11049      .   S
    Zr5    O87       2.34026      .   S
    C86    O88       1.08180      .   S
    N8     O88       2.09462      .   S
    C89    O90       1.11046      .   S
    Zr0    O90       2.34024      .   S
    C89    O91       1.08179      .   S
    N16    O91       2.09460      .   S
    Zr4    O92       1.87649      .   S
    C47    O92       0.69239      .   S
    Zr4    O93       2.11776      .   S
    N25    O93       0.92466      .   S
    Zr6    O94       1.87659      .   S
    C57    O94       0.69240      .   S
    Zr6    O95       2.11778      .   S
    N28    O95       0.92467      .   S
    C54    O96       0.69237  1_655   S
    Zr3    O96       1.87652      .   S
    C71    O97       0.68672      .   S
    Zr2    O97       1.87074      .   S
    Zr2    O98       2.11776      .   S
    N25    O98       0.92466      .   S
    Zr0    O99       1.87648      .   S
    C86    O99       0.69239      .   S
    Zr0    O100      2.11777      .   S
    N28    O100      0.92466      .   S
    C68    O101      0.68669  1_455   S
    Zr7    O101      1.87067      .   S
    Zr5    O102      1.87641      .   S
    C89    O102      0.69235  1_655   S
    Zr5    O103      2.11772      .   S
    N22    O103      0.92464  1_655   S
    Zr3    O104      2.11774      .   S
    N22    O104      0.92464  1_655   S
    Zr7    O105      2.11772      .   S
    N31    O105      0.92464  1_455   S
    Zr1    O106      2.11772      .   S
    N31    O106      0.92464  1_455   S
    Zr1    O107      1.87641      .   S
    C36    O107      0.69236  1_455   S
