# CIF file generated by openbabel 2.4.90, see http://openbabel.sf.net
data_I
_chemical_name_common ''
_cell_length_a 8.651
_cell_length_b 15.345
_cell_length_c 17.421
_cell_angle_alpha 90
_cell_angle_beta 90
_cell_angle_gamma 90.001
_space_group_name_H-M_alt 'P 1'
_space_group_name_Hall 'P 1'
loop_
    _symmetry_equiv_pos_as_xyz
    x,y,z
loop_
    _atom_site_label
    _atom_site_type_symbol
    _atom_site_fract_x
    _atom_site_fract_y
    _atom_site_fract_z
    _atom_site_occupancy
    C0      C    0.64421   0.26478   0.38890   1.000
    C1      C    0.85580   0.76476   0.61108   1.000
    C2      C    0.35579   0.73524   0.88889   1.000
    C3      C    0.14421   0.23526   0.11109   1.000
    C4      C    0.35579   0.73524   0.61108   1.000
    C5      C    0.14420   0.23526   0.38890   1.000
    C6      C    0.64421   0.26478   0.11109   1.000
    C7      C    0.85579   0.76476   0.88889   1.000
    C8      C    0.44807   0.00726   0.59851   1.000
    C9      C    0.98058   0.06806   0.55363   1.000
    C10     C    0.05194   0.50725   0.40146   1.000
    C11     C    0.51942   0.56806   0.44636   1.000
    C12     C    0.55194   0.99276   0.09853   1.000
    C13     C    0.01944   0.93196   0.05364   1.000
    C14     C    0.94807   0.49277   0.90145   1.000
    C15     C    0.48058   0.43197   0.94634   1.000
    C16     C    0.55194   0.99277   0.40148   1.000
    C17     C    0.01943   0.93197   0.44635   1.000
    C18     C    0.94807   0.49277   0.59852   1.000
    C19     C    0.48059   0.43196   0.55363   1.000
    C20     C    0.44806   0.00726   0.90146   1.000
    C21     C    0.98057   0.06806   0.94634   1.000
    C22     C    0.05194   0.50725   0.09853   1.000
    C23     C    0.51942   0.56805   0.05363   1.000
    C24     C    0.44499   0.17463   0.50291   1.000
    C25     C    0.32779   0.11717   0.53823   1.000
    C26     C    0.34302   0.03934   0.58007   1.000
    C27     C    0.19259   0.00999   0.59112   1.000
    C28     C    0.13376   0.92633   0.62273   1.000
    C29     C    0.05501   0.67461   0.49708   1.000
    C30     C    0.17221   0.61715   0.46176   1.000
    C31     C    0.15698   0.53933   0.41991   1.000
    C32     C    0.30742   0.50999   0.40887   1.000
    C33     C    0.36626   0.42635   0.37726   1.000
    C34     C    0.55501   0.82540   0.00000   1.000
    C35     C    0.67222   0.88285   0.03824   1.000
    C36     C    0.65699   0.96068   0.08008   1.000
    C37     C    0.80742   0.99003   0.09112   1.000
    C38     C    0.86625   0.07369   0.12273   1.000
    C39     C    0.94500   0.32541   0.99709   1.000
    C40     C    0.82779   0.38287   0.96174   1.000
    C41     C    0.84302   0.46070   0.91990   1.000
    C42     C    0.69259   0.49004   0.90885   1.000
    C43     C    0.63375   0.57367   0.87725   1.000
    C44     C    0.55502   0.82539   0.49707   1.000
    C45     C    0.67222   0.88286   0.46176   1.000
    C46     C    0.65699   0.96069   0.41992   1.000
    C47     C    0.80742   0.99003   0.40887   1.000
    C48     C    0.86625   0.07369   0.37726   1.000
    C49     C    0.94499   0.32541   0.50290   1.000
    C50     C    0.82780   0.38286   0.53823   1.000
    C51     C    0.84303   0.46069   0.58008   1.000
    C52     C    0.69259   0.49003   0.59112   1.000
    C53     C    0.63375   0.57367   0.62272   1.000
    C54     C    0.44499   0.17462   0.99709   1.000
    C55     C    0.32778   0.11717   0.96174   1.000
    C56     C    0.34301   0.03934   0.91990   1.000
    C57     C    0.19258   0.00999   0.90886   1.000
    C58     C    0.13376   0.92633   0.87725   1.000
    C59     C    0.05500   0.67461   0.00000   1.000
    C60     C    0.17221   0.61716   0.03824   1.000
    C61     C    0.15698   0.53933   0.08008   1.000
    C62     C    0.30742   0.50999   0.09113   1.000
    C63     C    0.36626   0.42635   0.12273   1.000
    C64     C    0.44993   0.20999   0.25000   1.000
    C65     C    0.05003   0.70994   0.74998   1.000
    C66     C    0.55008   0.79002   0.74998   1.000
    C67     C    0.94996   0.29007   0.24999   1.000
    C68     C    0.09843   0.06987   0.55634   1.000
    C69     C    0.17719   0.13528   0.52360   1.000
    C70     C    0.40157   0.56987   0.44364   1.000
    C71     C    0.32280   0.63527   0.47639   1.000
    C72     C    0.90158   0.93015   0.05636   1.000
    C73     C    0.82282   0.86474   0.02361   1.000
    C74     C    0.59843   0.43015   0.94363   1.000
    C75     C    0.67720   0.36475   0.97638   1.000
    C76     C    0.90158   0.93015   0.44365   1.000
    C77     C    0.82281   0.86474   0.47639   1.000
    C78     C    0.59844   0.43015   0.55635   1.000
    C79     C    0.67721   0.36475   0.52359   1.000
    C80     C    0.09842   0.06987   0.94363   1.000
    C81     C    0.17719   0.13528   0.97638   1.000
    C82     C    0.40157   0.56987   0.05635   1.000
    C83     C    0.32280   0.63527   0.02360   1.000
    C84     C    0.58620   0.15557   0.50318   1.000
    C85     C    0.39268   0.24306   0.46708   1.000
    C86     C    0.98857   0.91290   0.61967   1.000
    C87     C    0.23476   0.87331   0.64711   1.000
    C88     C    0.39269   0.18924   0.31586   1.000
    C89     C    0.91380   0.65556   0.49679   1.000
    C90     C    0.10731   0.74305   0.53290   1.000
    C91     C    0.51145   0.41293   0.38031   1.000
    C92     C    0.26526   0.37332   0.35287   1.000
    C93     C    0.10730   0.68923   0.68412   1.000
    C94     C    0.41381   0.84445   0.00320   1.000
    C95     C    0.60731   0.75696   0.96707   1.000
    C96     C    0.01143   0.08713   0.11968   1.000
    C97     C    0.76524   0.12671   0.14712   1.000
    C98     C    0.60730   0.81079   0.81585   1.000
    C99     C    0.08619   0.34446   0.99679   1.000
    C100    C    0.89270   0.25697   0.03291   1.000
    C101    C    0.48856   0.58709   0.88030   1.000
    C102    C    0.73474   0.62670   0.85286   1.000
    C103    C    0.89270   0.31079   0.18413   1.000
    C104    C    0.41380   0.84445   0.49680   1.000
    C105    C    0.60732   0.75696   0.53290   1.000
    C106    C    0.01143   0.08713   0.38031   1.000
    C107    C    0.76524   0.12671   0.35287   1.000
    C108    C    0.60730   0.81079   0.68412   1.000
    C109    C    0.08620   0.34446   0.50319   1.000
    C110    C    0.89269   0.25697   0.46708   1.000
    C111    C    0.48856   0.58708   0.61967   1.000
    C112    C    0.73474   0.62670   0.64711   1.000
    C113    C    0.89270   0.31079   0.31586   1.000
    C114    C    0.58619   0.15558   0.99678   1.000
    C115    C    0.39269   0.24306   0.03291   1.000
    C116    C    0.98857   0.91289   0.88030   1.000
    C117    C    0.23476   0.87331   0.85286   1.000
    C118    C    0.39269   0.18924   0.18413   1.000
    C119    C    0.91381   0.65556   0.00319   1.000
    C120    C    0.10730   0.74305   0.96707   1.000
    C121    C    0.51145   0.41293   0.11968   1.000
    C122    C    0.26526   0.37332   0.14712   1.000
    C123    C    0.10730   0.68923   0.81585   1.000
    C124    C    0.57959   0.25528   0.24999   1.000
    C125    C    0.92042   0.75527   0.74998   1.000
    C126    C    0.42040   0.74475   0.74998   1.000
    C127    C    0.07958   0.24476   0.24999   1.000
    O128    O    0.48441   0.83492   0.00160   1.000
    O129    O    0.61362   0.85413   0.01912   1.000
    O130    O    0.58116   0.79118   0.98353   1.000
    O131    O    0.98441   0.66509   0.00160   1.000
    O132    O    0.11361   0.64588   0.01912   1.000
    O133    O    0.08115   0.70883   0.98353   1.000
    O134    O    0.88480   0.71016   0.94604   1.000
    O135    O    0.38480   0.78984   0.94604   1.000
    O136    O    0.24751   0.62621   0.03092   1.000
    O137    O    0.36219   0.60257   0.03997   1.000
    O138    O    0.33930   0.68526   0.95624   1.000
    O139    O    0.74752   0.87380   0.03092   1.000
    O140    O    0.86220   0.89744   0.03998   1.000
    O141    O    0.83930   0.81475   0.95625   1.000
    O142    O    0.26845   0.23916   0.07200   1.000
    O143    O    0.41884   0.20884   0.01500   1.000
    O144    O    0.76845   0.26088   0.07200   1.000
    O145    O    0.91885   0.29119   0.01500   1.000
    O146    O    0.16460   0.57824   0.05916   1.000
    O147    O    0.66461   0.92177   0.05916   1.000
    O148    O    0.46050   0.56896   0.05499   1.000
    O149    O    0.96051   0.93106   0.05500   1.000
    O150    O    0.35450   0.53993   0.07374   1.000
    O151    O    0.85450   0.96009   0.07374   1.000
    O152    O    0.23220   0.52466   0.08560   1.000
    O153    O    0.10446   0.52329   0.08930   1.000
    O154    O    0.73221   0.97536   0.08560   1.000
    O155    O    0.60447   0.97672   0.08930   1.000
    O156    O    0.83683   0.03186   0.10693   1.000
    O157    O    0.33684   0.46817   0.10693   1.000
    O158    O    0.57783   0.33886   0.11538   1.000
    O159    O    0.70473   0.19575   0.12910   1.000
    O160    O    0.76846   0.28779   0.14761   1.000
    O161    O    0.61190   0.26003   0.18054   1.000
    O162    O    0.66071   0.31477   0.04373   1.000
    O163    O    0.61520   0.21018   0.05394   1.000
    O164    O    0.07782   0.16119   0.11538   1.000
    O165    O    0.20473   0.30429   0.12910   1.000
    O166    O    0.26845   0.21225   0.14761   1.000
    O167    O    0.11189   0.24001   0.18054   1.000
    O168    O    0.16070   0.18527   0.04373   1.000
    O169    O    0.11520   0.28986   0.05394   1.000
    O170    O    0.93884   0.08041   0.12120   1.000
    O171    O    0.43885   0.41964   0.12121   1.000
    O172    O    0.81574   0.10020   0.13493   1.000
    O173    O    0.31576   0.39984   0.13493   1.000
    O174    O    0.92133   0.30043   0.21706   1.000
    O175    O    0.42131   0.19961   0.21706   1.000
    O176    O    0.01477   0.26741   0.24999   1.000
    O177    O    0.92133   0.30043   0.28293   1.000
    O178    O    0.51476   0.23263   0.25000   1.000
    O179    O    0.42131   0.19961   0.28293   1.000
    O180    O    0.76845   0.28779   0.35238   1.000
    O181    O    0.26845   0.21225   0.35238   1.000
    O182    O    0.81574   0.10020   0.36506   1.000
    O183    O    0.70473   0.19575   0.37089   1.000
    O184    O    0.31576   0.39984   0.36507   1.000
    O185    O    0.20473   0.30429   0.37089   1.000
    O186    O    0.93884   0.08041   0.37878   1.000
    O187    O    0.83683   0.03186   0.39306   1.000
    O188    O    0.43885   0.41964   0.37879   1.000
    O189    O    0.33684   0.46817   0.39306   1.000
    O190    O    0.57783   0.33886   0.38461   1.000
    O191    O    0.07782   0.16119   0.38461   1.000
    O192    O    0.76845   0.26088   0.42799   1.000
    O193    O    0.61521   0.21018   0.44604   1.000
    O194    O    0.66071   0.31476   0.45625   1.000
    O195    O    0.26844   0.23916   0.42799   1.000
    O196    O    0.11520   0.28986   0.44604   1.000
    O197    O    0.16070   0.18527   0.45625   1.000
    O198    O    0.10446   0.52329   0.41069   1.000
    O199    O    0.60446   0.97673   0.41070   1.000
    O200    O    0.73220   0.97536   0.41439   1.000
    O201    O    0.85450   0.96009   0.42626   1.000
    O202    O    0.23220   0.52466   0.41439   1.000
    O203    O    0.35449   0.53993   0.42626   1.000
    O204    O    0.16459   0.57824   0.44083   1.000
    O205    O    0.66460   0.92177   0.44084   1.000
    O206    O    0.46050   0.56896   0.44500   1.000
    O207    O    0.36218   0.60257   0.46002   1.000
    O208    O    0.96050   0.93106   0.44500   1.000
    O209    O    0.86219   0.89745   0.46002   1.000
    O210    O    0.24750   0.62621   0.46908   1.000
    O211    O    0.11361   0.64588   0.47942   1.000
    O212    O    0.74752   0.87380   0.46907   1.000
    O213    O    0.61362   0.85413   0.47941   1.000
    O214    O    0.41884   0.20885   0.48499   1.000
    O215    O    0.91884   0.29119   0.48499   1.000
    O216    O    0.83931   0.81475   0.54373   1.000
    O217    O    0.33930   0.68526   0.54374   1.000
    O218    O    0.98440   0.66509   0.49694   1.000
    O219    O    0.88480   0.71016   0.55394   1.000
    O220    O    0.48441   0.83492   0.49693   1.000
    O221    O    0.38480   0.78984   0.55394   1.000
    O222    O    0.58117   0.79118   0.51499   1.000
    O223    O    0.08116   0.70883   0.51499   1.000
    O224    O    0.01560   0.33493   0.50304   1.000
    O225    O    0.88640   0.35414   0.52057   1.000
    O226    O    0.51559   0.16510   0.50304   1.000
    O227    O    0.38639   0.14590   0.52057   1.000
    O228    O    0.75250   0.37381   0.53091   1.000
    O229    O    0.63782   0.39745   0.53997   1.000
    O230    O    0.25249   0.12623   0.53091   1.000
    O231    O    0.13781   0.10258   0.53997   1.000
    O232    O    0.73156   0.76086   0.57199   1.000
    O233    O    0.23155   0.73914   0.57199   1.000
    O234    O    0.33540   0.07825   0.55915   1.000
    O235    O    0.83541   0.42178   0.55915   1.000
    O236    O    0.03950   0.06896   0.55498   1.000
    O237    O    0.53951   0.43106   0.55499   1.000
    O238    O    0.14551   0.03993   0.57373   1.000
    O239    O    0.64552   0.46009   0.57373   1.000
    O240    O    0.26780   0.02467   0.58559   1.000
    O241    O    0.39554   0.02330   0.58929   1.000
    O242    O    0.76781   0.47536   0.58560   1.000
    O243    O    0.89555   0.47673   0.58930   1.000
    O244    O    0.16317   0.96816   0.60692   1.000
    O245    O    0.66317   0.53185   0.60692   1.000
    O246    O    0.42218   0.66116   0.61537   1.000
    O247    O    0.29528   0.80427   0.62909   1.000
    O248    O    0.23155   0.71224   0.64760   1.000
    O249    O    0.38810   0.74000   0.68053   1.000
    O250    O    0.92219   0.83883   0.61537   1.000
    O251    O    0.79527   0.69573   0.62909   1.000
    O252    O    0.73155   0.78777   0.64760   1.000
    O253    O    0.06117   0.91962   0.62120   1.000
    O254    O    0.56115   0.58038   0.62120   1.000
    O255    O    0.68425   0.60019   0.63491   1.000
    O256    O    0.18426   0.89982   0.63492   1.000
    O257    O    0.57869   0.80041   0.71705   1.000
    O258    O    0.07866   0.69959   0.71705   1.000
    O259    O    0.48524   0.76739   0.74998   1.000
    O260    O    0.98522   0.73261   0.74998   1.000
    O261    O    0.07866   0.69959   0.78292   1.000
    O262    O    0.88811   0.76001   0.81944   1.000
    O263    O    0.57869   0.80041   0.78292   1.000
    O264    O    0.73155   0.78778   0.85237   1.000
    O265    O    0.23154   0.71224   0.85237   1.000
    O266    O    0.18426   0.89982   0.86505   1.000
    O267    O    0.29527   0.80427   0.87087   1.000
    O268    O    0.68425   0.60019   0.86505   1.000
    O269    O    0.79527   0.69573   0.87087   1.000
    O270    O    0.06116   0.91961   0.87877   1.000
    O271    O    0.16317   0.96816   0.89305   1.000
    O272    O    0.56115   0.58038   0.87877   1.000
    O273    O    0.66317   0.53186   0.89305   1.000
    O274    O    0.42217   0.66117   0.88459   1.000
    O275    O    0.92218   0.83883   0.88460   1.000
    O276    O    0.23155   0.73915   0.92798   1.000
    O277    O    0.73155   0.76086   0.92798   1.000
    O278    O    0.89555   0.47673   0.91067   1.000
    O279    O    0.39554   0.02330   0.91068   1.000
    O280    O    0.76781   0.47537   0.91438   1.000
    O281    O    0.64551   0.46010   0.92624   1.000
    O282    O    0.26780   0.02466   0.91438   1.000
    O283    O    0.14550   0.03993   0.92624   1.000
    O284    O    0.83541   0.42178   0.94082   1.000
    O285    O    0.33540   0.07825   0.94082   1.000
    O286    O    0.53951   0.43106   0.94498   1.000
    O287    O    0.63781   0.39745   0.96000   1.000
    O288    O    0.03949   0.06896   0.94498   1.000
    O289    O    0.13780   0.10258   0.96000   1.000
    O290    O    0.25248   0.12622   0.96906   1.000
    O291    O    0.38638   0.14590   0.97942   1.000
    O292    O    0.75249   0.37381   0.96906   1.000
    O293    O    0.88639   0.35414   0.97942   1.000
    O294    O    0.51559   0.16510   0.99694   1.000
    O295    O    0.01560   0.33494   0.99694   1.000
    O296    O    0.51845   0.25392   0.42799   1.000
    O297    O    0.51845   0.22701   0.35238   1.000
    O298    O    0.98155   0.75391   0.57199   1.000
    O299    O    0.98155   0.72700   0.64760   1.000
    O300    O    0.48155   0.74610   0.92798   1.000
    O301    O    0.48154   0.77302   0.85237   1.000
    O302    O    0.01845   0.24612   0.07200   1.000
    O303    O    0.01845   0.27303   0.14761   1.000
    O304    O    0.48155   0.74610   0.57199   1.000
    O305    O    0.48155   0.77301   0.64760   1.000
    O306    O    0.01845   0.24612   0.42799   1.000
    O307    O    0.01845   0.27303   0.35238   1.000
    O308    O    0.51845   0.25392   0.07200   1.000
    O309    O    0.51845   0.22701   0.14761   1.000
    O310    O    0.98155   0.75391   0.92798   1.000
    O311    O    0.98155   0.72700   0.85237   1.000
    O312    O    0.61190   0.26003   0.31945   1.000
    O313    O    0.88811   0.76001   0.68053   1.000
    O314    O    0.38809   0.74000   0.81944   1.000
    O315    O    0.11189   0.24001   0.31945   1.000
loop_
    _geom_bond_atom_site_label_1
    _geom_bond_atom_site_label_2
    _geom_bond_distance
    _geom_bond_site_symmetry_2
    _ccdc_geom_bond_type
    C34    O128      0.62866      .   S
    C94    O128      0.62866      .   S
    C34    O129      0.74988      .   S
    C35    O129      0.74988      .   S
    C34    O130      0.63969  1_554   S
    C95    O130      0.63969      .   S
    C59    O131      0.62859  1_455   S
    C119   O131      0.62859      .   S
    C59    O132      0.74988      .   S
    C60    O132      0.74988      .   S
    C59    O133      0.63966  1_554   S
    C120   O133      0.63966      .   S
    C119   O134      1.32525  1_554   S
    C7     O134      1.32525      .   S
    C94    O135      1.32529  1_554   S
    C2     O135      1.32529      .   S
    C83    O136      0.67814      .   S
    C60    O136      0.67814      .   S
    C83    O137      0.67029      .   S
    C82    O137      0.67029      .   S
    C83    O138      1.40908  1_554   S
    C2     O138      1.40908      .   S
    C73    O139      0.67814      .   S
    C35    O139      0.67814      .   S
    C73    O140      0.67030      .   S
    C72    O140      0.67030      .   S
    C73    O141      1.40916  1_554   S
    C7     O141      1.40916      .   S
    C115   O142      1.27379      .   S
    C3     O142      1.27379      .   S
    C115   O143      0.65136      .   S
    C54    O143      0.65136  1_556   S
    C100   O144      1.27378      .   S
    C6     O144      1.27378      .   S
    C100   O145      0.65136      .   S
    C39    O145      0.65136  1_556   S
    C60    O146      0.70268      .   S
    C61    O146      0.70268      .   S
    C35    O147      0.70267      .   S
    C36    O147      0.70267      .   S
    C23    O148      0.51051      .   S
    C82    O148      0.51051      .   S
    C13    O149      0.51051  1_455   S
    C72    O149      0.51051      .   S
    C82    O150      0.68461      .   S
    C62    O150      0.68461      .   S
    C72    O151      0.68462      .   S
    C37    O151      0.68462      .   S
    C61    O152      0.69524      .   S
    C62    O152      0.69524      .   S
    C61    O153      0.54116      .   S
    C22    O153      0.54116      .   S
    C36    O154      0.69524      .   S
    C37    O154      0.69524      .   S
    C36    O155      0.54116      .   S
    C12    O155      0.54116      .   S
    C37    O156      0.74335  1_565   S
    C38    O156      0.74335      .   S
    C62    O157      0.74321      .   S
    C63    O157      0.74321      .   S
    C6     O158      1.27573      .   S
    C121   O158      1.27573      .   S
    C6     O159      1.22258      .   S
    C97    O159      1.22258      .   S
    C6     O160      1.29792      .   S
    C103   O160      1.29792      .   S
    C6     O161      1.24394      .   S
    C124   O161      1.24394      .   S
    C6     O162      1.40908      .   S
    C75    O162      1.40908  1_556   S
    C6     O163      1.32529      .   S
    C114   O163      1.32529  1_556   S
    C3     O164      1.27559      .   S
    C96    O164      1.27559      .   S
    C3     O165      1.22259      .   S
    C122   O165      1.22259      .   S
    C3     O166      1.29797      .   S
    C118   O166      1.29797      .   S
    C3     O167      1.24394      .   S
    C127   O167      1.24394      .   S
    C3     O168      1.40915      .   S
    C81    O168      1.40915  1_556   S
    C3     O169      1.32524      .   S
    C99    O169      1.32524  1_556   S
    C96    O170      0.63696  1_455   S
    C38    O170      0.63696      .   S
    C121   O171      0.63696      .   S
    C63    O171      0.63696      .   S
    C38    O172      0.63364      .   S
    C97    O172      0.63364      .   S
    C63    O173      0.63363      .   S
    C122   O173      0.63363      .   S
    C103   O174      0.64483      .   S
    C67    O174      0.64483      .   S
    C118   O175      0.64484      .   S
    C64    O175      0.64484      .   S
    C67    O176      0.65972  1_655   S
    C127   O176      0.65972      .   S
    C67    O177      0.64484      .   S
    C113   O177      0.64484      .   S
    C124   O178      0.65977      .   S
    C64    O178      0.65977      .   S
    C64    O179      0.64484      .   S
    C88    O179      0.64484      .   S
    C113   O180      1.29794      .   S
    C0     O180      1.29794      .   S
    C88    O181      1.29798      .   S
    C5     O181      1.29798      .   S
    C107   O182      0.63364      .   S
    C48    O182      0.63364      .   S
    C107   O183      1.22259      .   S
    C0     O183      1.22259      .   S
    C92    O184      0.63364      .   S
    C33    O184      0.63364      .   S
    C92    O185      1.22259      .   S
    C5     O185      1.22259      .   S
    C48    O186      0.63696      .   S
    C106   O186      0.63696  1_455   S
    C48    O187      0.74335      .   S
    C47    O187      0.74335  1_565   S
    C33    O188      0.63697      .   S
    C91    O188      0.63697      .   S
    C33    O189      0.74320      .   S
    C32    O189      0.74320      .   S
    C91    O190      1.27573      .   S
    C0     O190      1.27573      .   S
    C106   O191      1.27562      .   S
    C5     O191      1.27562      .   S
    C0     O192      1.27379      .   S
    C110   O192      1.27379      .   S
    C0     O193      1.32511      .   S
    C84    O193      1.32511      .   S
    C0     O194      1.40893      .   S
    C79    O194      1.40893      .   S
    C5     O195      1.27378      .   S
    C85    O195      1.27378      .   S
    C5     O196      1.32508      .   S
    C109   O196      1.32508      .   S
    C5     O197      1.40902      .   S
    C69    O197      1.40902      .   S
    C10    O198      0.54115      .   S
    C31    O198      0.54115      .   S
    C16    O199      0.54116      .   S
    C46    O199      0.54116      .   S
    C47    O200      0.69524      .   S
    C46    O200      0.69524      .   S
    C47    O201      0.68462      .   S
    C76    O201      0.68462      .   S
    C32    O202      0.69525      .   S
    C31    O202      0.69525      .   S
    C32    O203      0.68461      .   S
    C70    O203      0.68461      .   S
    C31    O204      0.70268      .   S
    C30    O204      0.70268      .   S
    C46    O205      0.70268      .   S
    C45    O205      0.70268      .   S
    C70    O206      0.51050      .   S
    C11    O206      0.51050      .   S
    C70    O207      0.67030      .   S
    C71    O207      0.67030      .   S
    C76    O208      0.51050      .   S
    C17    O208      0.51050  1_455   S
    C76    O209      0.67030      .   S
    C77    O209      0.67030      .   S
    C30    O210      0.67815      .   S
    C71    O210      0.67815      .   S
    C30    O211      0.73892      .   S
    C29    O211      0.73892      .   S
    C45    O212      0.67815      .   S
    C77    O212      0.67815      .   S
    C45    O213      0.73892      .   S
    C44    O213      0.73892      .   S
    C85    O214      0.65136      .   S
    C24    O214      0.65136      .   S
    C110   O215      0.65136      .   S
    C49    O215      0.65136      .   S
    C77    O216      1.40897      .   S
    C1     O216      1.40897      .   S
    C71    O217      1.40888      .   S
    C4     O217      1.40888      .   S
    C89    O218      0.62803      .   S
    C29    O218      0.62803  1_455   S
    C89    O219      1.32509      .   S
    C1     O219      1.32509      .   S
    C104   O220      0.62809      .   S
    C44    O220      0.62809      .   S
    C104   O221      1.32512      .   S
    C4     O221      1.32512      .   S
    C44    O222      0.65136      .   S
    C105   O222      0.65136      .   S
    C29    O223      0.65136      .   S
    C90    O223      0.65136      .   S
    C49    O224      0.62802  1_655   S
    C109   O224      0.62802      .   S
    C49    O225      0.73892      .   S
    C50    O225      0.73892      .   S
    C24    O226      0.62808      .   S
    C84    O226      0.62808      .   S
    C24    O227      0.73892      .   S
    C25    O227      0.73892      .   S
    C79    O228      0.67815      .   S
    C50    O228      0.67815      .   S
    C79    O229      0.67030      .   S
    C78    O229      0.67030      .   S
    C69    O230      0.67814      .   S
    C25    O230      0.67814      .   S
    C69    O231      0.67030      .   S
    C68    O231      0.67030      .   S
    C105   O232      1.27379      .   S
    C1     O232      1.27379      .   S
    C90    O233      1.27379      .   S
    C4     O233      1.27379      .   S
    C25    O234      0.70268      .   S
    C26    O234      0.70268      .   S
    C50    O235      0.70268      .   S
    C51    O235      0.70268      .   S
    C9     O236      0.51049  1_655   S
    C68    O236      0.51049      .   S
    C19    O237      0.51051      .   S
    C78    O237      0.51051      .   S
    C68    O238      0.68463      .   S
    C27    O238      0.68463      .   S
    C78    O239      0.68462      .   S
    C52    O239      0.68462      .   S
    C26    O240      0.69525      .   S
    C27    O240      0.69525      .   S
    C26    O241      0.54115      .   S
    C8     O241      0.54115      .   S
    C51    O242      0.69524      .   S
    C52    O242      0.69524      .   S
    C51    O243      0.54115      .   S
    C18    O243      0.54115      .   S
    C27    O244      0.74335  1_545   S
    C28    O244      0.74335      .   S
    C52    O245      0.74320      .   S
    C53    O245      0.74320      .   S
    C4     O246      1.27575      .   S
    C111   O246      1.27575      .   S
    C4     O247      1.22259      .   S
    C87    O247      1.22259      .   S
    C4     O248      1.29793      .   S
    C93    O248      1.29793      .   S
    C4     O249      1.24393      .   S
    C126   O249      1.24393      .   S
    C1     O250      1.27563      .   S
    C86    O250      1.27563      .   S
    C1     O251      1.22259      .   S
    C112   O251      1.22259      .   S
    C1     O252      1.29801      .   S
    C108   O252      1.29801      .   S
    C86    O253      0.63697  1_655   S
    C28    O253      0.63697      .   S
    C111   O254      0.63696      .   S
    C53    O254      0.63696      .   S
    C53    O255      0.63363      .   S
    C112   O255      0.63363      .   S
    C28    O256      0.63364      .   S
    C87    O256      0.63364      .   S
    C108   O257      0.64484      .   S
    C66    O257      0.64484      .   S
    C93    O258      0.64483      .   S
    C65    O258      0.64483      .   S
    C126   O259      0.65978      .   S
    C66    O259      0.65978      .   S
    C65    O260      0.65972  1_455   S
    C125   O260      0.65972      .   S
    C65    O261      0.64484      .   S
    C123   O261      0.64484      .   S
    C125   O262      1.24394      .   S
    C7     O262      1.24394      .   S
    C66    O263      0.64484      .   S
    C98    O263      0.64484      .   S
    C98    O264      1.29799      .   S
    C7     O264      1.29799      .   S
    C123   O265      1.29792      .   S
    C2     O265      1.29792      .   S
    C117   O266      0.63364      .   S
    C58    O266      0.63364      .   S
    C117   O267      1.22258      .   S
    C2     O267      1.22258      .   S
    C102   O268      0.63364      .   S
    C43    O268      0.63364      .   S
    C102   O269      1.22259      .   S
    C7     O269      1.22259      .   S
    C58    O270      0.63696      .   S
    C116   O270      0.63696  1_655   S
    C58    O271      0.74335      .   S
    C57    O271      0.74335  1_545   S
    C43    O272      0.63696      .   S
    C101   O272      0.63696      .   S
    C43    O273      0.74321      .   S
    C42    O273      0.74321      .   S
    C101   O274      1.27573      .   S
    C2     O274      1.27573      .   S
    C116   O275      1.27559      .   S
    C7     O275      1.27559      .   S
    C2     O276      1.27379      .   S
    C120   O276      1.27379      .   S
    C7     O277      1.27378      .   S
    C95    O277      1.27378      .   S
    C14    O278      0.54115      .   S
    C41    O278      0.54115      .   S
    C20    O279      0.54115      .   S
    C56    O279      0.54115      .   S
    C42    O280      0.69525      .   S
    C41    O280      0.69525      .   S
    C42    O281      0.68462      .   S
    C74    O281      0.68462      .   S
    C57    O282      0.69524      .   S
    C56    O282      0.69524      .   S
    C57    O283      0.68462      .   S
    C80    O283      0.68462      .   S
    C41    O284      0.70268      .   S
    C40    O284      0.70268      .   S
    C56    O285      0.70268      .   S
    C55    O285      0.70268      .   S
    C74    O286      0.51050      .   S
    C15    O286      0.51050      .   S
    C74    O287      0.67030      .   S
    C75    O287      0.67030      .   S
    C80    O288      0.51050      .   S
    C21    O288      0.51050  1_655   S
    C80    O289      0.67030      .   S
    C81    O289      0.67030      .   S
    C55    O290      0.67814      .   S
    C81    O290      0.67814      .   S
    C55    O291      0.73904      .   S
    C54    O291      0.73904      .   S
    C40    O292      0.67814      .   S
    C75    O292      0.67814      .   S
    C40    O293      0.73903      .   S
    C39    O293      0.73903      .   S
    C114   O294      0.62804      .   S
    C54    O294      0.62804      .   S
    C99    O295      0.62798      .   S
    C39    O295      0.62798  1_655   S
    C85    O296      1.29428      .   S
    C0     O296      1.29428      .   S
    C88    O297      1.38718      .   S
    C0     O297      1.38718      .   S
    C90    O298      1.29421  1_455   S
    C1     O298      1.29421      .   S
    C93    O299      1.38712  1_455   S
    C1     O299      1.38712      .   S
    C95    O300      1.29429      .   S
    C2     O300      1.29429      .   S
    C98    O301      1.38717      .   S
    C2     O301      1.38717      .   S
    C100   O302      1.29423  1_655   S
    C3     O302      1.29423      .   S
    C103   O303      1.38714  1_655   S
    C3     O303      1.38714      .   S
    C105   O304      1.29428      .   S
    C4     O304      1.29428      .   S
    C108   O305      1.38717      .   S
    C4     O305      1.38717      .   S
    C110   O306      1.29421  1_655   S
    C5     O306      1.29421      .   S
    C113   O307      1.38712  1_655   S
    C5     O307      1.38712      .   S
    C115   O308      1.29429      .   S
    C6     O308      1.29429      .   S
    C118   O309      1.38719      .   S
    C6     O309      1.38719      .   S
    C120   O310      1.29422  1_455   S
    C7     O310      1.29422      .   S
    C123   O311      1.38713  1_455   S
    C7     O311      1.38713      .   S
    C124   O312      1.24394      .   S
    C0     O312      1.24394      .   S
    C125   O313      1.24394      .   S
    C1     O313      1.24394      .   S
    C126   O314      1.24394      .   S
    C2     O314      1.24394      .   S
    C127   O315      1.24394      .   S
    C5     O315      1.24394      .   S
