# CIF file generated by openbabel 2.4.90, see http://openbabel.sf.net
data_I
_chemical_name_common ''
_cell_length_a 8.651
_cell_length_b 15.345
_cell_length_c 17.421
_cell_angle_alpha 90
_cell_angle_beta 90
_cell_angle_gamma 90.001
_space_group_name_H-M_alt 'P 1'
_space_group_name_Hall 'P 1'
loop_
    _symmetry_equiv_pos_as_xyz
    x,y,z
loop_
    _atom_site_label
    _atom_site_type_symbol
    _atom_site_fract_x
    _atom_site_fract_y
    _atom_site_fract_z
    _atom_site_occupancy
    Zr0     Zr   0.64421   0.26478   0.38890   1.000
    Zr1     Zr   0.85580   0.76476   0.61108   1.000
    Zr2     Zr   0.35579   0.73524   0.88889   1.000
    Zr3     Zr   0.14421   0.23526   0.11109   1.000
    Zr4     Zr   0.35579   0.73524   0.61108   1.000
    Zr5     Zr   0.14420   0.23526   0.38890   1.000
    Zr6     Zr   0.64421   0.26478   0.11109   1.000
    Zr7     Zr   0.85579   0.76476   0.88889   1.000
    N8      N    0.22395   0.06385   0.56307   1.000
    O9      O    0.19232   0.12456   0.50966   1.000
    N10     N    0.72395   0.43618   0.93690   1.000
    O11     O    0.69233   0.37547   0.99032   1.000
    N12     N    0.27605   0.56384   0.43691   1.000
    O13     O    0.30767   0.62455   0.49033   1.000
    N14     N    0.22394   0.06385   0.93690   1.000
    O15     O    0.19232   0.12456   0.99032   1.000
    N16     N    0.72396   0.43617   0.56307   1.000
    O17     O    0.69233   0.37547   0.50966   1.000
    N18     N    0.27605   0.56384   0.06308   1.000
    O19     O    0.30767   0.62455   0.00966   1.000
    N20     N    0.77606   0.93617   0.43692   1.000
    O21     O    0.80768   0.87546   0.49032   1.000
    N22     N    0.95374   0.28910   0.25000   1.000
    O23     O    0.86109   0.28845   0.30119   1.000
    O24     O    0.98609   0.28107   0.30119   1.000
    O25     O    0.86110   0.28845   0.19880   1.000
    O26     O    0.98609   0.28107   0.19880   1.000
    O27     O    0.03282   0.26456   0.21527   1.000
    O28     O    0.03281   0.26456   0.28472   1.000
    N29     N    0.54627   0.78909   0.74998   1.000
    O30     O    0.51391   0.78105   0.69879   1.000
    O31     O    0.63891   0.78843   0.69879   1.000
    O32     O    0.51391   0.78105   0.80118   1.000
    O33     O    0.63891   0.78843   0.80118   1.000
    O34     O    0.46718   0.76454   0.71526   1.000
    O35     O    0.46718   0.76454   0.78471   1.000
    N36     N    0.45373   0.21093   0.25000   1.000
    O37     O    0.36109   0.21159   0.19880   1.000
    O38     O    0.48609   0.21897   0.19880   1.000
    O39     O    0.48609   0.21897   0.30119   1.000
    O40     O    0.36109   0.21159   0.30119   1.000
    O41     O    0.53282   0.23548   0.21527   1.000
    O42     O    0.53282   0.23548   0.28472   1.000
    N43     N    0.04626   0.71092   0.74998   1.000
    O44     O    0.96718   0.73547   0.78471   1.000
    O45     O    0.96719   0.73547   0.71526   1.000
    O46     O    0.01391   0.71896   0.69879   1.000
    O47     O    0.13891   0.71158   0.69879   1.000
    O48     O    0.13890   0.71158   0.80118   1.000
    O49     O    0.01391   0.71896   0.80118   1.000
    N50     N    0.77606   0.93617   0.06308   1.000
    O51     O    0.80768   0.87546   0.00967   1.000
    C52     C    0.02537   0.69107   0.50892   1.000
    O53     O    0.11010   0.64797   0.48354   1.000
    O54     O    0.95509   0.70062   0.53143   1.000
    O55     O    0.12846   0.71511   0.54046   1.000
    O56     O    0.00346   0.72249   0.54046   1.000
    C57     C    0.11903   0.90418   0.62983   1.000
    O58     O    0.02061   0.87151   0.62260   1.000
    O59     O    0.20715   0.85423   0.62946   1.000
    O60     O    0.15630   0.96009   0.60741   1.000
    C61     C    0.61902   0.59582   0.62983   1.000
    O62     O    0.70714   0.64577   0.62946   1.000
    O63     O    0.52060   0.62849   0.62260   1.000
    O64     O    0.65629   0.53992   0.60741   1.000
    C65     C    0.52538   0.80893   0.50892   1.000
    O66     O    0.45509   0.79939   0.53143   1.000
    O67     O    0.62847   0.78490   0.54046   1.000
    O68     O    0.50347   0.77752   0.54046   1.000
    O69     O    0.61011   0.85204   0.48354   1.000
    C70     C    0.88097   0.09585   0.12984   1.000
    O71     O    0.84371   0.03993   0.10742   1.000
    O72     O    0.97940   0.12852   0.12261   1.000
    O73     O    0.79285   0.14580   0.12947   1.000
    C74     C    0.97463   0.30895   0.00893   1.000
    O75     O    0.88990   0.35205   0.98354   1.000
    O76     O    0.04491   0.29940   0.03143   1.000
    O77     O    0.87154   0.28491   0.04046   1.000
    O78     O    0.99654   0.27753   0.04046   1.000
    C79     C    0.47462   0.19109   0.00893   1.000
    O80     O    0.37154   0.21512   0.04046   1.000
    O81     O    0.49654   0.22251   0.04046   1.000
    O82     O    0.38989   0.14798   0.98354   1.000
    O83     O    0.54491   0.20063   0.03143   1.000
    C84     C    0.38099   0.40420   0.12984   1.000
    O85     O    0.29286   0.35425   0.12947   1.000
    O86     O    0.47941   0.37153   0.12261   1.000
    O87     O    0.34372   0.46011   0.10742   1.000
    C88     C    0.61902   0.59582   0.87014   1.000
    O89     O    0.65629   0.53992   0.89256   1.000
    O90     O    0.70714   0.64578   0.87050   1.000
    O91     O    0.52059   0.62849   0.87736   1.000
    C92     C    0.02537   0.69108   0.99009   1.000
    O93     O    0.11010   0.64797   0.01559   1.000
    O94     O    0.95509   0.70062   0.96806   1.000
    O95     O    0.12846   0.71511   0.95903   1.000
    O96     O    0.00346   0.72249   0.95903   1.000
    C97     C    0.52538   0.80893   0.99009   1.000
    O98     O    0.61011   0.85204   0.01560   1.000
    O99     O    0.62847   0.78490   0.95903   1.000
    O100    O    0.50346   0.77752   0.95903   1.000
    O101    O    0.45509   0.79939   0.96807   1.000
    C102    C    0.11903   0.90418   0.87014   1.000
    O103    O    0.02061   0.87150   0.87737   1.000
    O104    O    0.20715   0.85423   0.87050   1.000
    O105    O    0.15629   0.96009   0.89256   1.000
    C106    C    0.88097   0.09584   0.37015   1.000
    O107    O    0.84371   0.03993   0.39257   1.000
    O108    O    0.97940   0.12852   0.37738   1.000
    O109    O    0.79285   0.14580   0.37052   1.000
    C110    C    0.38099   0.40420   0.37015   1.000
    O111    O    0.47941   0.37153   0.37738   1.000
    O112    O    0.29286   0.35425   0.37052   1.000
    O113    O    0.34372   0.46011   0.39257   1.000
    C114    C    0.47462   0.19109   0.49106   1.000
    O115    O    0.54491   0.20063   0.46855   1.000
    O116    O    0.49654   0.22251   0.45952   1.000
    O117    O    0.37153   0.21513   0.45952   1.000
    O118    O    0.38990   0.14798   0.51644   1.000
    C119    C    0.97463   0.30895   0.49106   1.000
    O120    O    0.04492   0.29940   0.46855   1.000
    O121    O    0.87154   0.28491   0.45952   1.000
    O122    O    0.99654   0.27753   0.45952   1.000
    O123    O    0.88990   0.35205   0.51644   1.000
loop_
    _geom_bond_atom_site_label_1
    _geom_bond_atom_site_label_2
    _geom_bond_distance
    _geom_bond_site_symmetry_2
    _ccdc_geom_bond_type
    N8     O9        1.34480      .   S
    Zr5    O9        2.73578      .   S
    N10    O11       1.34484      .   S
    Zr6    O11       2.73589  1_554   S
    N12    O13       1.34476      .   S
    Zr4    O13       2.73561      .   S
    N14    O15       1.34487      .   S
    Zr3    O15       2.73598  1_554   S
    N16    O17       1.34479      .   S
    Zr0    O17       2.73568      .   S
    N18    O19       1.34484      .   S
    Zr2    O19       2.73588  1_556   S
    N20    O21       1.34479      .   S
    Zr1    O21       2.73572      .   S
    N22    O23       1.19907      .   S
    Zr0    O23       2.44686      .   S
    N22    O24       0.94284      .   S
    Zr5    O24       2.16791  1_455   S
    N22    O25       1.19906      .   S
    Zr6    O25       2.44684      .   S
    N22    O26       0.94284      .   S
    Zr3    O26       2.16793  1_455   S
    N22    O27       0.98788  1_655   S
    Zr3    O27       2.10347      .   S
    N22    O28       0.98787  1_655   S
    Zr5    O28       2.10346      .   S
    N29    O30       0.94285      .   S
    Zr4    O30       2.16797      .   S
    N29    O31       1.19907      .   S
    Zr1    O31       2.44691      .   S
    N29    O32       0.94285      .   S
    Zr2    O32       2.16797      .   S
    N29    O33       1.19906      .   S
    Zr7    O33       2.44688      .   S
    N29    O34       0.98791      .   S
    Zr4    O34       2.10349      .   S
    N29    O35       0.98791      .   S
    Zr2    O35       2.10349      .   S
    N36    O37       1.19907      .   S
    Zr3    O37       2.44687      .   S
    N36    O38       0.94285      .   S
    Zr6    O38       2.16800      .   S
    N36    O39       0.94285      .   S
    Zr0    O39       2.16798      .   S
    N36    O40       1.19907      .   S
    Zr5    O40       2.44689      .   S
    N36    O41       0.98792      .   S
    Zr6    O41       2.10350      .   S
    N36    O42       0.98791      .   S
    Zr0    O42       2.10350      .   S
    N43    O44       0.98787  1_455   S
    Zr7    O44       2.10346      .   S
    N43    O45       0.98787  1_455   S
    Zr1    O45       2.10346      .   S
    N43    O46       0.94284      .   S
    Zr1    O46       2.16791  1_655   S
    N43    O47       1.19909      .   S
    Zr4    O47       2.44688      .   S
    N43    O48       1.19907      .   S
    Zr2    O48       2.44685      .   S
    N43    O49       0.94284      .   S
    Zr7    O49       2.16792  1_655   S
    N50    O51       1.34487      .   S
    Zr7    O51       2.73600  1_556   S
    C52    O53       1.08179      .   S
    N12    O53       2.09460      .   S
    C52    O54       0.73817  1_455   S
    Zr1    O54       1.90575      .   S
    C52    O55       1.11046      .   S
    Zr4    O55       2.34023      .   S
    C52    O56       0.75504      .   S
    Zr1    O56       1.88845  1_655   S
    C57    O58       0.99610      .   S
    Zr1    O58       2.18082  1_655   S
    C57    O59       1.08112      .   S
    Zr4    O59       2.25607      .   S
    C57    O60       0.99631      .   S
    N8     O60       1.86397  1_545   S
    C61    O62       1.08116      .   S
    Zr1    O62       2.25613      .   S
    C61    O63       0.99609      .   S
    Zr4    O63       2.18091      .   S
    C61    O64       0.99618      .   S
    N16    O64       1.86376      .   S
    C65    O66       0.73821      .   S
    Zr4    O66       1.90581      .   S
    C65    O67       1.11049      .   S
    Zr1    O67       2.34027      .   S
    C65    O68       0.75506      .   S
    Zr4    O68       1.88853      .   S
    C65    O69       1.08181      .   S
    N20    O69       2.09462      .   S
    C70    O71       0.99631      .   S
    N50    O71       1.86396  1_565   S
    C70    O72       0.99610      .   S
    Zr3    O72       2.18079  1_455   S
    C70    O73       1.08109      .   S
    Zr6    O73       2.25602      .   S
    C74    O75       1.08184  1_554   S
    N10    O75       2.09469      .   S
    C74    O76       0.73815  1_655   S
    Zr3    O76       1.90589      .   S
    C74    O77       1.11048      .   S
    Zr6    O77       2.34025      .   S
    C74    O78       0.75509      .   S
    Zr3    O78       1.88852  1_455   S
    C79    O80       1.11051      .   S
    Zr3    O80       2.34029      .   S
    C79    O81       0.75511      .   S
    Zr6    O81       1.88859      .   S
    C79    O82       1.08185  1_554   S
    N14    O82       2.09472      .   S
    C79    O83       0.73818      .   S
    Zr6    O83       1.90595      .   S
    C84    O85       1.08115      .   S
    Zr3    O85       2.25612      .   S
    C84    O86       0.99609      .   S
    Zr6    O86       2.18089      .   S
    C84    O87       0.99618      .   S
    N18    O87       1.86376      .   S
    C88    O89       0.99618      .   S
    N10    O89       1.86377      .   S
    C88    O90       1.08114      .   S
    Zr7    O90       2.25610      .   S
    C88    O91       0.99609      .   S
    Zr2    O91       2.18090      .   S
    C92    O93       1.08270  1_556   S
    N18    O93       2.10045      .   S
    C92    O94       0.73372  1_455   S
    Zr7    O94       1.89979      .   S
    C92    O95       1.10635      .   S
    Zr2    O95       2.33585      .   S
    C92    O96       0.74900      .   S
    Zr7    O96       1.88306  1_655   S
    C97    O98       1.08272  1_556   S
    N50    O98       2.10046      .   S
    C97    O99       1.10638      .   S
    Zr7    O99       2.33588      .   S
    C97    O100      0.74903      .   S
    Zr2    O100      1.88314      .   S
    C97    O101      0.73376      .   S
    Zr2    O101      1.89985      .   S
    C102   O103      0.99610      .   S
    Zr7    O103      2.18079  1_655   S
    C102   O104      1.08109      .   S
    Zr2    O104      2.25602      .   S
    C102   O105      0.99631      .   S
    N14    O105      1.86397  1_545   S
    C106   O107      0.99631      .   S
    N20    O107      1.86397  1_565   S
    C106   O108      0.99610      .   S
    Zr5    O108      2.18081  1_455   S
    C106   O109      1.08111      .   S
    Zr0    O109      2.25606      .   S
    C110   O111      0.99608      .   S
    Zr0    O111      2.18087      .   S
    C110   O112      1.08116      .   S
    Zr5    O112      2.25612      .   S
    C110   O113      0.99618      .   S
    N12    O113      1.86376      .   S
    C114   O115      0.73821      .   S
    Zr0    O115      1.90581      .   S
    C114   O116      0.75506      .   S
    Zr0    O116      1.88853      .   S
    C114   O117      1.11049      .   S
    Zr5    O117      2.34026      .   S
    C114   O118      1.08180      .   S
    N8     O118      2.09462      .   S
    C119   O120      0.73816  1_655   S
    Zr5    O120      1.90574      .   S
    C119   O121      1.11046      .   S
    Zr0    O121      2.34024      .   S
    C119   O122      0.75503      .   S
    Zr5    O122      1.88845  1_455   S
    C119   O123      1.08179      .   S
    N16    O123      2.09460      .   S
