# CIF file generated by openbabel 2.4.90, see http://openbabel.sf.net
data_I
_chemical_name_common ''
_cell_length_a 14.732
_cell_length_b 14.779
_cell_length_c 15.757
_cell_angle_alpha 117.881
_cell_angle_beta 97.495
_cell_angle_gamma 89.92
_space_group_name_H-M_alt 'P 1'
_space_group_name_Hall 'P 1'
loop_
    _symmetry_equiv_pos_as_xyz
    x,y,z
loop_
    _atom_site_label
    _atom_site_type_symbol
    _atom_site_fract_x
    _atom_site_fract_y
    _atom_site_fract_z
    _atom_site_occupancy
    H0      H    0.22714   0.65401   0.33528   1.000
    H1      H    0.26111   0.52918   0.39805   1.000
    H2      H    0.32155   0.59049   0.57240   1.000
    H3      H    0.34828   0.77827   0.68378   1.000
    H4      H    0.34791   0.94278   0.71591   1.000
    H5      H    0.37710   0.10311   0.76658   1.000
    H6      H    0.33309   0.16604   0.69769   1.000
    H7      H    0.16843   0.20792   0.69245   1.000
    H8      H    0.03234   0.24917   0.78389   1.000
    H9      H    0.02747   0.19155   0.90978   1.000
    H10     H    0.28000   0.06744   0.86561   1.000
    H11     H    0.02332   0.31835   0.66468   1.000
    H12     H    0.98952   0.13100   0.60190   1.000
    H13     H    0.92878   0.01860   0.42758   1.000
    H14     H    0.90154   0.09552   0.31630   1.000
    H15     H    0.90174   0.22799   0.28420   1.000
    H16     H    0.87274   0.33787   0.23347   1.000
    H17     H    0.91717   0.46924   0.30218   1.000
    H18     H    0.08184   0.51524   0.30710   1.000
    H19     H    0.21773   0.46435   0.21537   1.000
    H20     H    0.22217   0.28104   0.08968   1.000
    H21     H    0.96965   0.20253   0.13462   1.000
    H22     H    0.27523   0.34596   0.66450   1.000
    H23     H    0.23965   0.47060   0.60188   1.000
    H24     H    0.17741   0.40907   0.42786   1.000
    H25     H    0.15027   0.22126   0.31689   1.000
    H26     H    0.12315   0.89645   0.23393   1.000
    H27     H    0.16783   0.83348   0.30254   1.000
    H28     H    0.33240   0.79215   0.30730   1.000
    H29     H    0.46809   0.75095   0.21527   1.000
    H30     H    0.47224   0.80872   0.08939   1.000
    H31     H    0.21987   0.93296   0.13479   1.000
    H32     H    0.97537   0.68185   0.33526   1.000
    H33     H    0.01071   0.86892   0.39794   1.000
    H34     H    0.07246   0.98088   0.57208   1.000
    H35     H    0.09940   0.90372   0.68313   1.000
    H36     H    0.09782   0.77156   0.71537   1.000
    H37     H    0.12693   0.66156   0.76613   1.000
    H38     H    0.08204   0.53038   0.69760   1.000
    H39     H    0.91745   0.48507   0.69290   1.000
    H40     H    0.78168   0.53636   0.78480   1.000
    H41     H    0.77763   0.71976   0.91048   1.000
    H42     H    0.03026   0.79754   0.86510   1.000
    C43     C    0.26934   0.78786   0.47281   1.000
    C44     C    0.25403   0.68015   0.41146   1.000
    C45     C    0.97653   0.73708   0.84443   1.000
    N46     N    0.29966   0.00770   0.62947   1.000
    N47     N    0.79958   0.00798   0.62928   1.000
    N48     N    0.15321   0.12739   0.89211   1.000
    C49     C    0.27265   0.61136   0.44700   1.000
    C50     C    0.30674   0.64546   0.54555   1.000
    C51     C    0.32200   0.74963   0.60701   1.000
    C52     C    0.30338   0.82220   0.57300   1.000
    C53     C    0.31825   0.92805   0.64246   1.000
    C54     C    0.31758   0.10770   0.71901   1.000
    C55     C    0.23516   0.13547   0.77239   1.000
    C56     C    0.16405   0.18702   0.74970   1.000
    C57     C    0.08873   0.20893   0.79960   1.000
    C58     C    0.08558   0.17769   0.86995   1.000
    C59     C    0.22649   0.10737   0.84461   1.000
    C60     C    0.98072   0.31524   0.52724   1.000
    C61     C    0.99630   0.26861   0.58854   1.000
    C62     C    0.97780   0.16436   0.55290   1.000
    C63     C    0.94354   0.10037   0.45448   1.000
    C64     C    0.92798   0.14334   0.39307   1.000
    C65     C    0.94650   0.24970   0.42701   1.000
    C66     C    0.93151   0.28640   0.35764   1.000
    C67     C    0.93240   0.38954   0.28090   1.000
    C68     C    0.01479   0.36341   0.22747   1.000
    C69     C    0.08604   0.43715   0.24993   1.000
    C70     C    0.16125   0.40874   0.19984   1.000
    C71     C    0.16417   0.30729   0.12965   1.000
    C72     C    0.02327   0.26312   0.15540   1.000
    C73     C    0.23225   0.21196   0.52735   1.000
    C74     C    0.24743   0.31972   0.58857   1.000
    C75     C    0.22797   0.38840   0.55301   1.000
    C76     C    0.19288   0.35417   0.45473   1.000
    C77     C    0.17743   0.24999   0.39347   1.000
    C78     C    0.19694   0.17750   0.42734   1.000
    C79     C    0.18291   0.89202   0.28130   1.000
    C80     C    0.26518   0.86465   0.22769   1.000
    C81     C    0.33649   0.81308   0.25004   1.000
    C82     C    0.41158   0.79123   0.19978   1.000
    C83     C    0.41434   0.82259   0.12951   1.000
    C84     C    0.27350   0.89296   0.15553   1.000
    C85     C    0.01800   0.68463   0.47255   1.000
    C86     C    0.00297   0.73136   0.41120   1.000
    C87     C    0.02229   0.83546   0.44685   1.000
    C88     C    0.05711   0.89921   0.54520   1.000
    C89     C    0.07245   0.85611   0.60650   1.000
    C90     C    0.05308   0.74988   0.57262   1.000
    C91     C    0.06807   0.71314   0.64196   1.000
    C92     C    0.06710   0.61012   0.71876   1.000
    C93     C    0.98480   0.63671   0.77240   1.000
    C94     C    0.91339   0.56317   0.75008   1.000
    C95     C    0.83826   0.59183   0.80026   1.000
    C96     C    0.83556   0.69332   0.87040   1.000
    N97     N    0.45026   0.37936   0.37080   1.000
    N98     N    0.95022   0.37888   0.37050   1.000
    N99     N    0.09645   0.23526   0.10777   1.000
    N100    N    0.20061   0.99197   0.37096   1.000
    N101    N    0.70065   0.99220   0.37081   1.000
    N102    N    0.34658   0.87298   0.10772   1.000
    N103    N    0.04948   0.62064   0.62906   1.000
    N104    N    0.54958   0.62114   0.62930   1.000
    N105    N    0.90341   0.76517   0.89219   1.000
    Cl106   Cl   0.04744   0.99640   0.10726   1.000
    Cl107   Cl   0.95242   0.00425   0.89301   1.000
    O108    O    0.25338   0.84957   0.43506   1.000
    O109    O    0.99657   0.41456   0.56502   1.000
    O110    O    0.24970   0.15036   0.56499   1.000
    O111    O    0.00056   0.58556   0.43491   1.000
loop_
    _geom_bond_atom_site_label_1
    _geom_bond_atom_site_label_2
    _geom_bond_distance
    _geom_bond_site_symmetry_2
    _ccdc_geom_bond_type
    H30    C83       1.09005      .   S
    H20    C71       1.09005      .   S
    N102   C83       1.34793      .   S
    N102   C84       1.34774      .   S
    N99    C71       1.34802      .   S
    N99    C72       1.34767      .   S
    C83    C82       1.39069      .   S
    C71    C70       1.39079      .   S
    H21    C72       1.09235  1_655   S
    H31    C84       1.09198      .   S
    C72    C68       1.40147      .   S
    C84    C80       1.40153      .   S
    C82    H29       1.09013      .   S
    C82    C81       1.39417      .   S
    C70    H19       1.09010      .   S
    C70    C69       1.39423      .   S
    C68    C69       1.40020      .   S
    C68    C67       1.51396  1_455   S
    C80    C81       1.40026      .   S
    C80    C79       1.51399      .   S
    H16    C67       1.10039      .   S
    H26    C79       1.10039      .   S
    C69    H18       1.09047      .   S
    C81    H28       1.09032      .   S
    C67    H17       1.09528      .   S
    C67    N98       1.48263      .   S
    C79    H27       1.09568      .   S
    C79    N100      1.48297      .   S
    H15    C66       1.10047      .   S
    H14    C64       1.09213      .   S
    H25    C77       1.09167      .   S
    H32    C86       1.08973  1_655   S
    H0     C44       1.09073      .   S
    C66    N98       1.30861      .   S
    C66    C65       1.42443      .   S
    C64    C65       1.41711      .   S
    C64    C63       1.38149      .   S
    C77    C78       1.41742      .   S
    C77    C76       1.38121      .   S
    H33    C87       1.09066      .   S
    H1     C49       1.09045      .   S
    C86    C87       1.38381      .   S
    C86    C85       1.42422      .   S
    C44    C49       1.38353      .   S
    C44    C43       1.42283      .   S
    C65    C60       1.43160      .   S
    C78    C73       1.43163      .   S
    H13    C63       1.08858      .   S
    H24    C76       1.08861      .   S
    O111   C85       1.30800      .   S
    O108   C43       1.30811      .   S
    C87    C88       1.40738      .   S
    C49    C50       1.40815      .   S
    C63    C62       1.40695      .   S
    C76    C75       1.40732      .   S
    C85    C90       1.43179      .   S
    C43    C52       1.43045      .   S
    C60    O109      1.30808      .   S
    C60    C61       1.42293      .   S
    C73    O110      1.30806      .   S
    C73    C74       1.42302      .   S
    C88    H34       1.08859      .   S
    C88    C89       1.38116      .   S
    C50    H2        1.08798      .   S
    C50    C51       1.38142      .   S
    C62    C61       1.38400      .   S
    C62    H12       1.09091      .   S
    C75    C74       1.38405      .   S
    C75    H23       1.09059      .   S
    C90    C89       1.41742      .   S
    C90    C91       1.42434      .   S
    C52    C51       1.41805      .   S
    C52    C53       1.42482      .   S
    C61    H11       1.09068  1_655   S
    C74    H22       1.09004      .   S
    C89    H35       1.09170      .   S
    C51    H3        1.09168      .   S
    N103   C91       1.30835      .   S
    N103   C92       1.48292      .   S
    N46    C53       1.30867  1_545   S
    N46    C54       1.48265      .   S
    C91    H36       1.10011      .   S
    C53    H4        1.10016      .   S
    H7     C56       1.09052      .   S
    H39    C94       1.09041      .   S
    H38    C92       1.09522      .   S
    H6     C54       1.09539      .   S
    C92    H37       1.10070      .   S
    C92    C93       1.51460  1_455   S
    C54    H5        1.10059      .   S
    C54    C55       1.51400      .   S
    C56    C55       1.40021      .   S
    C56    C57       1.39385      .   S
    C94    C93       1.40025      .   S
    C94    C95       1.39404      .   S
    C55    C59       1.40135      .   S
    C93    C45       1.40151      .   S
    H8     C57       1.08980      .   S
    H40    C95       1.09015      .   S
    C57    C58       1.39151      .   S
    C95    C96       1.39066      .   S
    C45    H42       1.09248  1_655   S
    C45    N105      1.34794      .   S
    C59    H10       1.09199      .   S
    C59    N48       1.34767      .   S
    C58    N48       1.34794      .   S
    C58    H9        1.09002      .   S
    C96    N105      1.34788      .   S
    C96    H41       1.09026      .   S
