# CIF file generated by openbabel 2.4.90, see http://openbabel.sf.net
data_I
_chemical_name_common ''
_cell_length_a 14.732
_cell_length_b 14.779
_cell_length_c 15.757
_cell_angle_alpha 117.881
_cell_angle_beta 97.495
_cell_angle_gamma 89.92
_space_group_name_H-M_alt 'P 1'
_space_group_name_Hall 'P 1'
loop_
    _symmetry_equiv_pos_as_xyz
    x,y,z
loop_
    _atom_site_label
    _atom_site_type_symbol
    _atom_site_fract_x
    _atom_site_fract_y
    _atom_site_fract_z
    _atom_site_occupancy
    Lv0     Lv   0.54958   0.62114   0.62930   1.000
    Lv1     Lv   0.99388   0.71152   0.66038   1.000
    Lv2     Lv   0.00577   0.28843   0.33942   1.000
    Lv3     Lv   0.21520   0.29991   0.50187   1.000
    Lv4     Lv   0.70065   0.99220   0.37081   1.000
    Lv5     Lv   0.79958   0.00798   0.62928   1.000
    Lv6     Lv   0.45026   0.37936   0.37080   1.000
    Lv7     Lv   0.24425   0.94865   0.66047   1.000
    Lv8     Lv   0.04744   0.99640   0.10726   1.000
    Lv9     Lv   0.30106   0.85401   0.21470   1.000
    Lv10    Lv   0.95242   0.00425   0.89301   1.000
