# CIF file generated by openbabel 2.4.90, see http://openbabel.sf.net
data_I
_chemical_name_common ''
_cell_length_a 14.732
_cell_length_b 14.779
_cell_length_c 15.757
_cell_angle_alpha 117.881
_cell_angle_beta 97.495
_cell_angle_gamma 89.92
_space_group_name_H-M_alt 'P 1'
_space_group_name_Hall 'P 1'
loop_
    _symmetry_equiv_pos_as_xyz
    x,y,z
loop_
    _atom_site_label
    _atom_site_type_symbol
    _atom_site_fract_x
    _atom_site_fract_y
    _atom_site_fract_z
    _atom_site_occupancy
    H0      H    0.72710   0.65386   0.33540   1.000
    H1      H    0.76054   0.52941   0.39864   1.000
    H2      H    0.82071   0.59103   0.57315   1.000
    H3      H    0.84761   0.77884   0.68415   1.000
    H4      H    0.84717   0.94314   0.71594   1.000
    H5      H    0.87679   0.10342   0.76644   1.000
    H6      H    0.83256   0.16644   0.69773   1.000
    H7      H    0.66798   0.20801   0.69257   1.000
    H8      H    0.53203   0.24931   0.78423   1.000
    H9      H    0.52743   0.19175   0.91020   1.000
    H10     H    0.77974   0.06726   0.86542   1.000
    H11     H    0.52342   0.31816   0.66468   1.000
    H12     H    0.49025   0.13070   0.60146   1.000
    H13     H    0.42987   0.01845   0.42701   1.000
    H14     H    0.40244   0.09570   0.31607   1.000
    H15     H    0.40255   0.22828   0.28428   1.000
    H16     H    0.37295   0.33835   0.23372   1.000
    H17     H    0.41764   0.46960   0.30222   1.000
    H18     H    0.58213   0.51515   0.30690   1.000
    H19     H    0.71794   0.46409   0.21511   1.000
    H20     H    0.72220   0.28068   0.08947   1.000
    H21     H    0.46979   0.20251   0.13483   1.000
    H22     H    0.77414   0.34653   0.66432   1.000
    H23     H    0.73868   0.47085   0.60133   1.000
    H24     H    0.67737   0.40902   0.42000   1.000
    H25     H    0.65083   0.22114   0.31617   1.000
    H26     H    0.65201   0.05697   0.28439   1.000
    H27     H    0.62312   0.89675   0.23380   1.000
    H28     H    0.66750   0.83376   0.30250   1.000
    H29     H    0.83213   0.79224   0.30737   1.000
    H30     H    0.96799   0.75101   0.21555   1.000
    H31     H    0.97237   0.80873   0.08965   1.000
    H32     H    0.71990   0.93282   0.13456   1.000
    H33     H    0.47676   0.68208   0.33532   1.000
    H34     H    0.51093   0.86930   0.39820   1.000
    H35     H    0.57188   0.98155   0.57256   1.000
    H36     H    0.59881   0.90444   0.68360   1.000
    H37     H    0.59829   0.77195   0.71561   1.000
    H38     H    0.62696   0.66216   0.76641   1.000
    H39     H    0.58239   0.53085   0.69780   1.000
    H40     H    0.41789   0.48516   0.69306   1.000
    H41     H    0.28199   0.53616   0.78483   1.000
    H42     H    0.27761   0.71957   0.91039   1.000
    H43     H    0.53007   0.79785   0.86519   1.000
    C44     C    0.76912   0.78800   0.47283   1.000
    C45     C    0.75384   0.68023   0.41164   1.000
    C46     C    0.77214   0.61161   0.44750   1.000
    C47     C    0.80604   0.64588   0.54607   1.000
    C48     C    0.82141   0.75005   0.60734   1.000
    C49     C    0.80299   0.82247   0.57317   1.000
    C50     C    0.81782   0.92831   0.64238   1.000
    C51     C    0.81720   0.10795   0.71890   1.000
    C52     C    0.73482   0.13545   0.77233   1.000
    C53     C    0.66366   0.18705   0.74979   1.000
    C54     C    0.58844   0.20902   0.79987   1.000
    C55     C    0.58542   0.17778   0.87000   1.000
    C56     C    0.72624   0.10726   0.84451   1.000
    C57     C    0.48099   0.31539   0.52730   1.000
    C58     C    0.49656   0.26857   0.58847   1.000
    C59     C    0.47841   0.16422   0.55262   1.000
    C60     C    0.44438   0.10030   0.45409   1.000
    C61     C    0.42873   0.14343   0.39285   1.000
    C62     C    0.44699   0.24989   0.42703   1.000
    C63     C    0.43198   0.28674   0.35779   1.000
    C64     C    0.43271   0.38990   0.28113   1.000
    C65     C    0.51500   0.36341   0.22750   1.000
    C66     C    0.58630   0.43705   0.24982   1.000
    C67     C    0.66144   0.40853   0.19965   1.000
    C68     C    0.66426   0.30704   0.12952   1.000
    C69     C    0.52339   0.26306   0.15554   1.000
    C70     C    0.73187   0.21229   0.52709   1.000
    C71     C    0.74681   0.32008   0.58820   1.000
    C72     C    0.72737   0.38863   0.55240   1.000
    C73     C    0.69275   0.35425   0.45405   1.000
    C74     C    0.67762   0.25003   0.39286   1.000
    C75     C    0.69700   0.17770   0.42694   1.000
    C76     C    0.68198   0.07181   0.35778   1.000
    C77     C    0.68280   0.89221   0.28124   1.000
    C78     C    0.76508   0.86466   0.22762   1.000
    C79     C    0.83633   0.81310   0.25007   1.000
    C80     C    0.91151   0.79126   0.19995   1.000
    C81     C    0.91439   0.82256   0.12960   1.000
    C82     C    0.77349   0.89286   0.15541   1.000
    C83     C    0.51932   0.68492   0.47267   1.000
    C84     C    0.50387   0.73166   0.41146   1.000
    C85     C    0.52260   0.83589   0.44714   1.000
    C86     C    0.55696   0.89978   0.54558   1.000
    C87     C    0.57233   0.85672   0.60692   1.000
    C88     C    0.55356   0.75039   0.57291   1.000
    C89     C    0.56843   0.71359   0.64222   1.000
    C90     C    0.56724   0.61055   0.71895   1.000
    C91     C    0.48492   0.63693   0.77251   1.000
    C92     C    0.41367   0.56324   0.75021   1.000
    C93     C    0.33847   0.59175   0.80030   1.000
    C94     C    0.33559   0.69323   0.87040   1.000
    C95     C    0.47649   0.73727   0.84449   1.000
    N96     N    0.65306   0.12737   0.89218   1.000
    N97     N    0.59651   0.23510   0.10779   1.000
    N98     N    0.84666   0.87290   0.10773   1.000
    N99     N    0.40331   0.76521   0.89216   1.000
    O100    O    0.75317   0.84962   0.43499   1.000
    O101    O    0.49682   0.41473   0.56520   1.000
    O102    O    0.74902   0.15079   0.56490   1.000
    O103    O    0.50336   0.58560   0.43486   1.000
loop_
    _geom_bond_atom_site_label_1
    _geom_bond_atom_site_label_2
    _geom_bond_distance
    _geom_bond_site_symmetry_2
    _ccdc_geom_bond_type
    H20    C68       1.09004      .   S
    H31    C81       1.08953      .   S
    N98    C81       1.34763      .   S
    N98    C82       1.34777      .   S
    N97    C68       1.34796      .   S
    N97    C69       1.34788      .   S
    C68    C67       1.39074      .   S
    C81    C80       1.39154      .   S
    H32    C82       1.09197      .   S
    H21    C69       1.09206      .   S
    C82    C78       1.40141      .   S
    C69    C65       1.40134      .   S
    C67    H19       1.09009      .   S
    C67    C66       1.39403      .   S
    C80    H30       1.09009      .   S
    C80    C79       1.39414      .   S
    C65    C66       1.40012      .   S
    C65    C64       1.51440      .   S
    C78    C79       1.40018      .   S
    C78    C77       1.51427      .   S
    H16    C64       1.10068      .   S
    H27    C77       1.10071      .   S
    C66    H18       1.09007      .   S
    C79    H29       1.09035      .   S
    C64    H17       1.09532      .   S
    C77    H28       1.09543      .   S
    H15    C63       1.10009      .   S
    H26    C76       1.10011      .   S
    H14    C61       1.09161      .   S
    H25    C74       1.09172      .   S
    H33    C84       1.09057      .   S
    H0     C45       1.09056      .   S
    C76    C75       1.42422      .   S
    C63    C62       1.42412      .   S
    C61    C62       1.41732      .   S
    C61    C60       1.38116      .   S
    C74    C75       1.41722      .   S
    C74    C73       1.38124      .   S
    H34    C85       1.09058      .   S
    H1     C46       1.09053      .   S
    C84    C85       1.38422      .   S
    C84    C83       1.42289      .   S
    C45    C46       1.38421      .   S
    C45    C44       1.42306      .   S
    H24    C73       1.16983      .   S
    C75    C70       1.43188      .   S
    H13    C60       1.08861      .   S
    C62    C57       1.43133      .   S
    O103   C83       1.30810      .   S
    O100   C44       1.30805      .   S
    C85    C86       1.40727      .   S
    C46    C47       1.40741      .   S
    C73    C72       1.40639      .   S
    C60    C59       1.40737      .   S
    C83    C88       1.43165      .   S
    C44    C49       1.43173      .   S
    C70    O102      1.30815      .   S
    C70    C71       1.42283      .   S
    C57    O101      1.30799      .   S
    C57    C58       1.42349      .   S
    C86    H35       1.08868      .   S
    C86    C87       1.38143      .   S
    C47    H2        1.08861      .   S
    C47    C48       1.38107      .   S
    C72    C71       1.38496      .   S
    C72    H23       1.09067      .   S
    C59    C58       1.38415      .   S
    C59    H12       1.09052      .   S
    C88    C87       1.41701      .   S
    C88    C89       1.42449      .   S
    C49    C48       1.41731      .   S
    C49    C50       1.42387      .   S
    C71    H22       1.09063      .   S
    C58    H11       1.09063      .   S
    C87    H36       1.09101      .   S
    C48    H3        1.09169      .   S
    C89    H37       1.10008      .   S
    C50    H4        1.10019      .   S
    H7     C53       1.09048      .   S
    H40    C92       1.09042      .   S
    H6     C51       1.09522      .   S
    H39    C90       1.09548      .   S
    C51    H5        1.10067      .   S
    C51    C52       1.51399      .   S
    C90    H38       1.10072      .   S
    C90    C91       1.51427      .   S
    C53    C52       1.40013      .   S
    C53    C54       1.39415      .   S
    C92    C91       1.40010      .   S
    C92    C93       1.39415      .   S
    C52    C56       1.40141      .   S
    C91    C95       1.40144      .   S
    H8     C54       1.09008      .   S
    H41    C93       1.09009      .   S
    C54    C55       1.38792      .   S
    C93    C94       1.39068      .   S
    C95    H43       1.09207      .   S
    C95    N99       1.34787      .   S
    C56    H10       1.09204      .   S
    C56    N96       1.34779      .   S
    C55    N96       1.34922      .   S
    C55    H9        1.09192      .   S
    C94    N99       1.34800      .   S
    C94    H42       1.09005      .   S
