# CIF file generated by openbabel 2.4.90, see http://openbabel.sf.net
data_I
_chemical_name_common ''
_cell_length_a 14.732
_cell_length_b 14.779
_cell_length_c 15.757
_cell_angle_alpha 117.881
_cell_angle_beta 97.495
_cell_angle_gamma 89.92
_space_group_name_H-M_alt 'P 1'
_space_group_name_Hall 'P 1'
loop_
    _symmetry_equiv_pos_as_xyz
    x,y,z
loop_
    _atom_site_label
    _atom_site_type_symbol
    _atom_site_fract_x
    _atom_site_fract_y
    _atom_site_fract_z
    _atom_site_occupancy
    Mc0     Mc   0.54285   0.78983   0.52608   1.000
    Mc1     Mc   0.44128   0.64076   0.79744   1.000
    Mc2     Mc   0.70750   0.26385   0.47311   1.000
    Mc3     Mc   0.80871   0.84345   0.20270   1.000
    Mc4     Mc   0.79228   0.73634   0.52640   1.000
    Mc5     Mc   0.69118   0.15677   0.79724   1.000
    Mc6     Mc   0.45795   0.21035   0.47376   1.000
    Mc7     Mc   0.55864   0.35957   0.20255   1.000
