# CIF file generated by openbabel 2.4.90, see http://openbabel.sf.net
data_I
_chemical_name_common ''
_cell_length_a 14.732
_cell_length_b 14.779
_cell_length_c 15.757
_cell_angle_alpha 117.881
_cell_angle_beta 97.495
_cell_angle_gamma 89.92
_space_group_name_H-M_alt 'P 1'
_space_group_name_Hall 'P 1'
loop_
    _symmetry_equiv_pos_as_xyz
    x,y,z
loop_
    _atom_site_label
    _atom_site_type_symbol
    _atom_site_fract_x
    _atom_site_fract_y
    _atom_site_fract_z
    _atom_site_occupancy
    C0      C    0.12484   0.05802   0.30000   1.000
    C1      C    0.62483   0.05792   0.00010   1.000
    C2      C    0.37483   0.94237   0.99976   1.000
    C3      C    0.87507   0.94247   0.10000   1.000
    C4      C    0.25043   0.99987   0.50010   1.000
    C5      C    0.75044   0.00019   0.50000   1.000
    C6      C    0.99963   0.49990   0.49991   1.000
    C7      C    0.49988   0.50023   0.50003   1.000
    C8      C    0.22714   0.65401   0.33528   1.000
    C9      C    0.72710   0.65386   0.33540   1.000
    C10     C    0.26111   0.52918   0.39805   1.000
    C11     C    0.76054   0.52941   0.39864   1.000
    C12     C    0.32155   0.59049   0.57240   1.000
    C13     C    0.82071   0.59103   0.57315   1.000
    C14     C    0.34828   0.77827   0.68378   1.000
    C15     C    0.84761   0.77884   0.68415   1.000
    C16     C    0.34791   0.94278   0.71591   1.000
    C17     C    0.84717   0.94314   0.71594   1.000
    C18     C    0.37710   0.10311   0.76658   1.000
    C19     C    0.87679   0.10342   0.76644   1.000
    C20     C    0.33309   0.16604   0.69769   1.000
    C21     C    0.83256   0.16644   0.69773   1.000
    C22     C    0.16843   0.20792   0.69245   1.000
    C23     C    0.66798   0.20801   0.69257   1.000
    C24     C    0.03234   0.24917   0.78389   1.000
    C25     C    0.53203   0.24931   0.78423   1.000
    C26     C    0.02747   0.19155   0.90978   1.000
    C27     C    0.52743   0.19175   0.91020   1.000
    C28     C    0.28000   0.06744   0.86561   1.000
    C29     C    0.77974   0.06726   0.86542   1.000
    C30     C    0.02332   0.31835   0.66468   1.000
    C31     C    0.52342   0.31816   0.66468   1.000
    C32     C    0.49025   0.13070   0.60146   1.000
    C33     C    0.98952   0.13100   0.60190   1.000
    C34     C    0.42987   0.01845   0.42701   1.000
    C35     C    0.92878   0.01860   0.42758   1.000
    C36     C    0.40244   0.09570   0.31607   1.000
    C37     C    0.90154   0.09552   0.31630   1.000
    C38     C    0.40255   0.22828   0.28428   1.000
    C39     C    0.90174   0.22799   0.28420   1.000
    C40     C    0.37295   0.33835   0.23372   1.000
    C41     C    0.87274   0.33787   0.23347   1.000
    C42     C    0.41764   0.46960   0.30222   1.000
    C43     C    0.91717   0.46924   0.30218   1.000
    C44     C    0.08184   0.51524   0.30710   1.000
    C45     C    0.58213   0.51515   0.30690   1.000
    C46     C    0.21773   0.46435   0.21537   1.000
    C47     C    0.71794   0.46409   0.21511   1.000
    C48     C    0.22217   0.28104   0.08968   1.000
    C49     C    0.72220   0.28068   0.08947   1.000
    C50     C    0.46979   0.20251   0.13483   1.000
    C51     C    0.96965   0.20253   0.13462   1.000
    C52     C    0.27523   0.34596   0.66450   1.000
    C53     C    0.77414   0.34653   0.66432   1.000
    C54     C    0.23965   0.47060   0.60188   1.000
    C55     C    0.73868   0.47085   0.60133   1.000
    C56     C    0.17741   0.40907   0.42786   1.000
    C57     C    0.67737   0.40902   0.42000   1.000
    C58     C    0.15027   0.22126   0.31689   1.000
    C59     C    0.65083   0.22114   0.31617   1.000
    C60     C    0.15199   0.05690   0.28467   1.000
    C61     C    0.65201   0.05697   0.28439   1.000
    C62     C    0.12315   0.89645   0.23393   1.000
    C63     C    0.62312   0.89675   0.23380   1.000
    C64     C    0.16783   0.83348   0.30254   1.000
    C65     C    0.66750   0.83376   0.30250   1.000
    C66     C    0.33240   0.79215   0.30730   1.000
    C67     C    0.83213   0.79224   0.30737   1.000
    C68     C    0.46809   0.75095   0.21527   1.000
    C69     C    0.96799   0.75101   0.21555   1.000
    C70     C    0.47224   0.80872   0.08939   1.000
    C71     C    0.97237   0.80873   0.08965   1.000
    C72     C    0.21987   0.93296   0.13479   1.000
    C73     C    0.71990   0.93282   0.13456   1.000
    C74     C    0.47676   0.68208   0.33532   1.000
    C75     C    0.97537   0.68185   0.33526   1.000
    C76     C    0.01071   0.86892   0.39794   1.000
    C77     C    0.51093   0.86930   0.39820   1.000
    C78     C    0.07246   0.98088   0.57208   1.000
    C79     C    0.57188   0.98155   0.57256   1.000
    C80     C    0.09940   0.90372   0.68313   1.000
    C81     C    0.59881   0.90444   0.68360   1.000
    C82     C    0.09782   0.77156   0.71537   1.000
    C83     C    0.59829   0.77195   0.71561   1.000
    C84     C    0.12693   0.66156   0.76613   1.000
    C85     C    0.62696   0.66216   0.76641   1.000
    C86     C    0.08204   0.53038   0.69760   1.000
    C87     C    0.58239   0.53085   0.69780   1.000
    C88     C    0.41789   0.48516   0.69306   1.000
    C89     C    0.91745   0.48507   0.69290   1.000
    C90     C    0.28199   0.53616   0.78483   1.000
    C91     C    0.78168   0.53636   0.78480   1.000
    C92     C    0.27761   0.71957   0.91039   1.000
    C93     C    0.77763   0.71976   0.91048   1.000
    C94     C    0.03026   0.79754   0.86510   1.000
    C95     C    0.53007   0.79785   0.86519   1.000
    C96     C    0.26934   0.78786   0.47281   1.000
    C97     C    0.76912   0.78800   0.47283   1.000
    C98     C    0.25403   0.68015   0.41146   1.000
    C99     C    0.75384   0.68023   0.41164   1.000
    C100    C    0.27265   0.61136   0.44700   1.000
    C101    C    0.77214   0.61161   0.44750   1.000
    C102    C    0.30674   0.64546   0.54555   1.000
    C103    C    0.80604   0.64588   0.54607   1.000
    C104    C    0.32200   0.74963   0.60701   1.000
    C105    C    0.82141   0.75005   0.60734   1.000
    C106    C    0.30338   0.82220   0.57300   1.000
    C107    C    0.80299   0.82247   0.57317   1.000
    C108    C    0.31825   0.92805   0.64246   1.000
    C109    C    0.81782   0.92831   0.64238   1.000
    C110    C    0.31758   0.10770   0.71901   1.000
    C111    C    0.81720   0.10795   0.71890   1.000
    C112    C    0.23516   0.13547   0.77239   1.000
    C113    C    0.73482   0.13545   0.77233   1.000
    C114    C    0.16405   0.18702   0.74970   1.000
    C115    C    0.66366   0.18705   0.74979   1.000
    C116    C    0.08873   0.20893   0.79960   1.000
    C117    C    0.58844   0.20902   0.79987   1.000
    C118    C    0.08558   0.17769   0.86995   1.000
    C119    C    0.58542   0.17778   0.87000   1.000
    C120    C    0.22649   0.10737   0.84461   1.000
    C121    C    0.72624   0.10726   0.84451   1.000
    C122    C    0.48099   0.31539   0.52730   1.000
    C123    C    0.98072   0.31524   0.52724   1.000
    C124    C    0.49656   0.26857   0.58847   1.000
    C125    C    0.99630   0.26861   0.58854   1.000
    C126    C    0.47841   0.16422   0.55262   1.000
    C127    C    0.97780   0.16436   0.55290   1.000
    C128    C    0.44438   0.10030   0.45409   1.000
    C129    C    0.94354   0.10037   0.45448   1.000
    C130    C    0.42873   0.14343   0.39285   1.000
    C131    C    0.92798   0.14334   0.39307   1.000
    C132    C    0.44699   0.24989   0.42703   1.000
    C133    C    0.94650   0.24970   0.42701   1.000
    C134    C    0.43198   0.28674   0.35779   1.000
    C135    C    0.93151   0.28640   0.35764   1.000
    C136    C    0.43271   0.38990   0.28113   1.000
    C137    C    0.93240   0.38954   0.28090   1.000
    C138    C    0.01479   0.36341   0.22747   1.000
    C139    C    0.51500   0.36341   0.22750   1.000
    C140    C    0.08604   0.43715   0.24993   1.000
    C141    C    0.58630   0.43705   0.24982   1.000
    C142    C    0.16125   0.40874   0.19984   1.000
    C143    C    0.66144   0.40853   0.19965   1.000
    C144    C    0.16417   0.30729   0.12965   1.000
    C145    C    0.66426   0.30704   0.12952   1.000
    C146    C    0.02327   0.26312   0.15540   1.000
    C147    C    0.52339   0.26306   0.15554   1.000
    C148    C    0.23225   0.21196   0.52735   1.000
    C149    C    0.73187   0.21229   0.52709   1.000
    C150    C    0.24743   0.31972   0.58857   1.000
    C151    C    0.74681   0.32008   0.58820   1.000
    C152    C    0.22797   0.38840   0.55301   1.000
    C153    C    0.72737   0.38863   0.55240   1.000
    C154    C    0.19288   0.35417   0.45473   1.000
    C155    C    0.69275   0.35425   0.45405   1.000
    C156    C    0.17743   0.24999   0.39347   1.000
    C157    C    0.67762   0.25003   0.39286   1.000
    C158    C    0.19694   0.17750   0.42734   1.000
    C159    C    0.69700   0.17770   0.42694   1.000
    C160    C    0.18190   0.07166   0.35805   1.000
    C161    C    0.68198   0.07181   0.35778   1.000
    C162    C    0.18291   0.89202   0.28130   1.000
    C163    C    0.68280   0.89221   0.28124   1.000
    C164    C    0.26518   0.86465   0.22769   1.000
    C165    C    0.76508   0.86466   0.22762   1.000
    C166    C    0.33649   0.81308   0.25004   1.000
    C167    C    0.83633   0.81310   0.25007   1.000
    C168    C    0.41158   0.79123   0.19978   1.000
    C169    C    0.91151   0.79126   0.19995   1.000
    C170    C    0.41434   0.82259   0.12951   1.000
    C171    C    0.91439   0.82256   0.12960   1.000
    C172    C    0.27350   0.89296   0.15553   1.000
    C173    C    0.77349   0.89286   0.15541   1.000
    C174    C    0.01800   0.68463   0.47255   1.000
    C175    C    0.51932   0.68492   0.47267   1.000
    C176    C    0.00297   0.73136   0.41120   1.000
    C177    C    0.50387   0.73166   0.41146   1.000
    C178    C    0.02229   0.83546   0.44685   1.000
    C179    C    0.52260   0.83589   0.44714   1.000
    C180    C    0.05711   0.89921   0.54520   1.000
    C181    C    0.55696   0.89978   0.54558   1.000
    C182    C    0.07245   0.85611   0.60650   1.000
    C183    C    0.57233   0.85672   0.60692   1.000
    C184    C    0.05308   0.74988   0.57262   1.000
    C185    C    0.55356   0.75039   0.57291   1.000
    C186    C    0.06807   0.71314   0.64196   1.000
    C187    C    0.56843   0.71359   0.64222   1.000
    C188    C    0.06710   0.61012   0.71876   1.000
    C189    C    0.56724   0.61055   0.71895   1.000
    C190    C    0.48492   0.63693   0.77251   1.000
    C191    C    0.98480   0.63671   0.77240   1.000
    C192    C    0.41367   0.56324   0.75021   1.000
    C193    C    0.91339   0.56317   0.75008   1.000
    C194    C    0.33847   0.59175   0.80030   1.000
    C195    C    0.83826   0.59183   0.80026   1.000
    C196    C    0.33559   0.69323   0.87040   1.000
    C197    C    0.83556   0.69332   0.87040   1.000
    C198    C    0.47649   0.73727   0.84449   1.000
    C199    C    0.97653   0.73708   0.84443   1.000
    C200    C    0.29966   0.00770   0.62947   1.000
    C201    C    0.79958   0.00798   0.62928   1.000
    C202    C    0.15321   0.12739   0.89211   1.000
    C203    C    0.65306   0.12737   0.89218   1.000
    C204    C    0.45026   0.37936   0.37080   1.000
    C205    C    0.95022   0.37888   0.37050   1.000
    C206    C    0.09645   0.23526   0.10777   1.000
    C207    C    0.59651   0.23510   0.10779   1.000
    C208    C    0.20061   0.99197   0.37096   1.000
    C209    C    0.70065   0.99220   0.37081   1.000
    C210    C    0.34658   0.87298   0.10772   1.000
    C211    C    0.84666   0.87290   0.10773   1.000
    C212    C    0.04948   0.62064   0.62906   1.000
    C213    C    0.54958   0.62114   0.62930   1.000
    C214    C    0.40331   0.76521   0.89216   1.000
    C215    C    0.90341   0.76517   0.89219   1.000
    C216    C    0.04744   0.99640   0.10726   1.000
    C217    C    0.54723   0.99625   0.10700   1.000
    C218    C    0.20235   0.88929   0.89283   1.000
    C219    C    0.70253   0.88939   0.89300   1.000
    C220    C    0.45255   0.00396   0.89272   1.000
    C221    C    0.95242   0.00425   0.89301   1.000
    C222    C    0.29739   0.11108   0.10676   1.000
    C223    C    0.79731   0.11101   0.10708   1.000
    C224    C    0.25338   0.84957   0.43506   1.000
    C225    C    0.75317   0.84962   0.43499   1.000
    C226    C    0.49682   0.41473   0.56520   1.000
    C227    C    0.99657   0.41456   0.56502   1.000
    C228    C    0.24970   0.15036   0.56499   1.000
    C229    C    0.74902   0.15079   0.56490   1.000
    C230    C    0.00056   0.58556   0.43491   1.000
    C231    C    0.50336   0.58560   0.43486   1.000
    O232    O    0.58603   0.02708   0.05355   1.000
    O233    O    0.71107   0.08446   0.05359   1.000
    O234    O    0.61067   0.14651   0.05395   1.000
    O235    O    0.63894   0.09264   0.94614   1.000
    O236    O    0.66368   0.97365   0.94655   1.000
    O237    O    0.44329   0.81565   0.10945   1.000
    O238    O    0.69323   0.29386   0.10950   1.000
    O239    O    0.94338   0.81564   0.10963   1.000
    O240    O    0.19317   0.29416   0.10967   1.000
    O241    O    0.33611   0.02673   0.05326   1.000
    O242    O    0.38046   0.84778   0.11862   1.000
    O243    O    0.31004   0.88297   0.13163   1.000
    O244    O    0.36070   0.90768   0.05374   1.000
    O245    O    0.88052   0.84773   0.11867   1.000
    O246    O    0.81007   0.88288   0.13157   1.000
    O247    O    0.86086   0.90768   0.10387   1.000
    O248    O    0.13031   0.27128   0.11871   1.000
    O249    O    0.05986   0.24919   0.13159   1.000
    O250    O    0.63039   0.27107   0.11866   1.000
    O251    O    0.55995   0.24908   0.13167   1.000
    O252    O    0.41296   0.80691   0.16465   1.000
    O253    O    0.66285   0.35778   0.16459   1.000
    O254    O    0.91295   0.80691   0.16478   1.000
    O255    O    0.16271   0.35801   0.16475   1.000
    O256    O    0.74669   0.91284   0.14499   1.000
    O257    O    0.99646   0.23283   0.14501   1.000
    O258    O    0.24668   0.91296   0.14516   1.000
    O259    O    0.49659   0.23279   0.14519   1.000
    O260    O    0.01903   0.31326   0.19144   1.000
    O261    O    0.76929   0.87876   0.19152   1.000
    O262    O    0.26934   0.87881   0.19161   1.000
    O263    O    0.51919   0.31324   0.19152   1.000
    O264    O    0.68969   0.43631   0.20738   1.000
    O265    O    0.62387   0.42279   0.22474   1.000
    O266    O    0.43984   0.77109   0.20753   1.000
    O267    O    0.37404   0.80216   0.22491   1.000
    O268    O    0.18949   0.43655   0.20761   1.000
    O269    O    0.12364   0.42295   0.22489   1.000
    O270    O    0.93975   0.77114   0.20775   1.000
    O271    O    0.87392   0.80218   0.22501   1.000
    O272    O    0.05041   0.40028   0.23870   1.000
    O273    O    0.97359   0.37647   0.25419   1.000
    O274    O    0.55065   0.40023   0.23866   1.000
    O275    O    0.47386   0.37665   0.25432   1.000
    O276    O    0.80071   0.83888   0.23885   1.000
    O277    O    0.72394   0.87843   0.25443   1.000
    O278    O    0.30083   0.83887   0.23887   1.000
    O279    O    0.22405   0.87833   0.25450   1.000
    O280    O    0.90257   0.36371   0.25719   1.000
    O281    O    0.40283   0.36412   0.25743   1.000
    O282    O    0.65296   0.89448   0.25752   1.000
    O283    O    0.15303   0.89423   0.25762   1.000
    O284    O    0.58422   0.47610   0.27836   1.000
    O285    O    0.08394   0.47620   0.27852   1.000
    O286    O    0.33444   0.80261   0.27867   1.000
    O287    O    0.83423   0.80267   0.27872   1.000
    O288    O    0.92479   0.42939   0.29154   1.000
    O289    O    0.94131   0.38421   0.32570   1.000
    O290    O    0.42517   0.42975   0.29168   1.000
    O291    O    0.44149   0.38463   0.32597   1.000
    O292    O    0.67515   0.86298   0.29187   1.000
    O293    O    0.69173   0.94220   0.32603   1.000
    O294    O    0.17537   0.86275   0.29192   1.000
    O295    O    0.19176   0.94199   0.32613   1.000
    O296    O    0.91662   0.25720   0.32092   1.000
    O297    O    0.41726   0.25751   0.32104   1.000
    O298    O    0.66699   0.06439   0.32109   1.000
    O299    O    0.13842   0.05746   0.29234   1.000
    O300    O    0.41558   0.11957   0.35446   1.000
    O301    O    0.66422   0.23558   0.35452   1.000
    O302    O    0.91476   0.11943   0.35469   1.000
    O303    O    0.16385   0.23562   0.35518   1.000
    O304    O    0.98917   0.70660   0.37323   1.000
    O305    O    0.24059   0.66708   0.37337   1.000
    O306    O    0.49031   0.70687   0.37339   1.000
    O307    O    0.74047   0.66704   0.37352   1.000
    O308    O    0.94086   0.33264   0.36407   1.000
    O309    O    0.93901   0.26805   0.39233   1.000
    O310    O    0.69132   0.03200   0.36430   1.000
    O311    O    0.68949   0.12475   0.39236   1.000
    O312    O    0.44112   0.33305   0.36430   1.000
    O313    O    0.43949   0.26832   0.39241   1.000
    O314    O    0.19126   0.03182   0.36451   1.000
    O315    O    0.18942   0.12458   0.39270   1.000
    O316    O    0.15337   0.06484   0.32903   1.000
    O317    O    0.97492   0.43939   0.43521   1.000
    O318    O    0.47507   0.43979   0.43542   1.000
    O319    O    0.72554   0.99619   0.43541   1.000
    O320    O    0.22552   0.99592   0.43553   1.000
    O321    O    0.43786   0.19666   0.40994   1.000
    O322    O    0.43655   0.12187   0.42347   1.000
    O323    O    0.68731   0.21386   0.40990   1.000
    O324    O    0.68519   0.30214   0.42346   1.000
    O325    O    0.93724   0.19652   0.41004   1.000
    O326    O    0.93576   0.12186   0.42378   1.000
    O327    O    0.18719   0.21375   0.41041   1.000
    O328    O    0.18515   0.30208   0.42410   1.000
    O329    O    0.01650   0.85219   0.42240   1.000
    O330    O    0.26688   0.57027   0.42253   1.000
    O331    O    0.51677   0.85260   0.42267   1.000
    O332    O    0.76634   0.57051   0.42307   1.000
    O333    O    0.01263   0.78341   0.42903   1.000
    O334    O    0.01048   0.70800   0.44188   1.000
    O335    O    0.26334   0.64575   0.42923   1.000
    O336    O    0.26169   0.73401   0.44214   1.000
    O337    O    0.51324   0.78377   0.42930   1.000
    O338    O    0.51159   0.70829   0.44207   1.000
    O339    O    0.76299   0.64592   0.42957   1.000
    O340    O    0.76148   0.73411   0.44224   1.000
    O341    O    0.68506   0.38164   0.43703   1.000
    O342    O    0.71443   0.19499   0.47702   1.000
    O343    O    0.43712   0.05938   0.44055   1.000
    O344    O    0.96361   0.28247   0.47713   1.000
    O345    O    0.46399   0.28264   0.47717   1.000
    O346    O    0.21459   0.19473   0.47735   1.000
    O347    O    0.93616   0.05949   0.44103   1.000
    O348    O    0.18514   0.38162   0.44130   1.000
    O349    O    0.51134   0.63526   0.45377   1.000
    O350    O    0.50162   0.54291   0.46745   1.000
    O351    O    0.00928   0.63509   0.45373   1.000
    O352    O    0.00010   0.54273   0.46741   1.000
    O353    O    0.76114   0.81881   0.45391   1.000
    O354    O    0.75180   0.92491   0.46750   1.000
    O355    O    0.26136   0.81872   0.45394   1.000
    O356    O    0.25191   0.92472   0.46758   1.000
    O357    O    0.03970   0.86733   0.49603   1.000
    O358    O    0.28969   0.62841   0.49628   1.000
    O359    O    0.53978   0.86784   0.49636   1.000
    O360    O    0.78909   0.62874   0.49679   1.000
    O361    O    0.71006   0.37144   0.50323   1.000
    O362    O    0.46140   0.13226   0.50336   1.000
    O363    O    0.96067   0.13237   0.50369   1.000
    O364    O    0.21042   0.37129   0.50387   1.000
    O365    O    0.03554   0.71726   0.52259   1.000
    O366    O    0.53644   0.71765   0.52279   1.000
    O367    O    0.28636   0.80503   0.52291   1.000
    O368    O    0.78605   0.80523   0.52300   1.000
    O369    O    0.99810   0.45723   0.53247   1.000
    O370    O    0.02455   0.56027   0.56449   1.000
    O371    O    0.74973   0.07549   0.53245   1.000
    O372    O    0.77501   0.00408   0.56464   1.000
    O373    O    0.49835   0.45748   0.53262   1.000
    O374    O    0.52473   0.56068   0.56467   1.000
    O375    O    0.25006   0.07512   0.53255   1.000
    O376    O    0.27505   0.00379   0.56479   1.000
    O377    O    0.74045   0.18154   0.54600   1.000
    O378    O    0.73934   0.26618   0.55765   1.000
    O379    O    0.98864   0.36490   0.54613   1.000
    O380    O    0.98851   0.29192   0.55789   1.000
    O381    O    0.48890   0.36506   0.54625   1.000
    O382    O    0.48877   0.29198   0.55789   1.000
    O383    O    0.24097   0.18116   0.54617   1.000
    O384    O    0.23984   0.26584   0.55796   1.000
    O385    O    0.06478   0.94004   0.55864   1.000
    O386    O    0.06478   0.87766   0.57585   1.000
    O387    O    0.31414   0.61797   0.55898   1.000
    O388    O    0.31437   0.69755   0.57628   1.000
    O389    O    0.56442   0.94066   0.55907   1.000
    O390    O    0.56464   0.87825   0.57625   1.000
    O391    O    0.81337   0.61845   0.55961   1.000
    O392    O    0.81372   0.69797   0.57671   1.000
    O393    O    0.73709   0.35435   0.57030   1.000
    O394    O    0.73302   0.42974   0.57687   1.000
    O395    O    0.48749   0.21639   0.57055   1.000
    O396    O    0.48433   0.14746   0.57704   1.000
    O397    O    0.98705   0.21649   0.57072   1.000
    O398    O    0.98366   0.14768   0.57740   1.000
    O399    O    0.23770   0.35406   0.57079   1.000
    O400    O    0.23381   0.42950   0.57745   1.000
    O401    O    0.06277   0.80300   0.58956   1.000
    O402    O    0.06058   0.73151   0.60729   1.000
    O403    O    0.56295   0.80355   0.58992   1.000
    O404    O    0.56099   0.73199   0.60757   1.000
    O405    O    0.31269   0.78592   0.59001   1.000
    O406    O    0.31082   0.87512   0.60773   1.000
    O407    O    0.81220   0.78626   0.59026   1.000
    O408    O    0.81040   0.87539   0.60778   1.000
    O409    O    0.76048   0.33331   0.62626   1.000
    O410    O    0.50999   0.29336   0.62658   1.000
    O411    O    0.00981   0.29348   0.62661   1.000
    O412    O    0.26133   0.33284   0.62654   1.000
    O413    O    0.08593   0.87991   0.64482   1.000
    O414    O    0.58557   0.88058   0.64526   1.000
    O415    O    0.33514   0.76395   0.64540   1.000
    O416    O    0.83451   0.76445   0.64575   1.000
    O417    O    0.05878   0.66689   0.63551   1.000
    O418    O    0.05829   0.61538   0.67391   1.000
    O419    O    0.80870   0.96814   0.63583   1.000
    O420    O    0.80839   0.05796   0.67409   1.000
    O421    O    0.55900   0.66737   0.63576   1.000
    O422    O    0.55841   0.61585   0.67413   1.000
    O423    O    0.30896   0.96787   0.63597   1.000
    O424    O    0.30862   0.05770   0.67424   1.000
    O425    O    0.08295   0.74235   0.67867   1.000
    O426    O    0.58336   0.74277   0.67892   1.000
    O427    O    0.83249   0.93573   0.67916   1.000
    O428    O    0.33308   0.93541   0.67919   1.000
    O429    O    0.16624   0.19747   0.72108   1.000
    O430    O    0.66582   0.19753   0.72118   1.000
    O431    O    0.91542   0.52412   0.72149   1.000
    O432    O    0.41578   0.52420   0.72164   1.000
    O433    O    0.07457   0.57025   0.70818   1.000
    O434    O    0.32534   0.13687   0.70835   1.000
    O435    O    0.82488   0.13719   0.70832   1.000
    O436    O    0.57482   0.57070   0.70838   1.000
    O437    O    0.09701   0.63584   0.74245   1.000
    O438    O    0.02595   0.62342   0.74558   1.000
    O439    O    0.84700   0.10569   0.74267   1.000
    O440    O    0.77601   0.12170   0.74562   1.000
    O441    O    0.59710   0.63636   0.74268   1.000
    O442    O    0.52608   0.62374   0.74573   1.000
    O443    O    0.34734   0.10540   0.74280   1.000
    O444    O    0.27637   0.12159   0.74570   1.000
    O445    O    0.19961   0.16124   0.76105   1.000
    O446    O    0.12639   0.19797   0.77465   1.000
    O447    O    0.69924   0.16125   0.76106   1.000
    O448    O    0.62605   0.19803   0.77483   1.000
    O449    O    0.94910   0.59994   0.76124   1.000
    O450    O    0.87583   0.57750   0.77517   1.000
    O451    O    0.44929   0.60009   0.76136   1.000
    O452    O    0.37607   0.57750   0.77526   1.000
    O453    O    0.73053   0.12136   0.80842   1.000
    O454    O    0.23083   0.12142   0.80850   1.000
    O455    O    0.98066   0.68690   0.80842   1.000
    O456    O    0.48070   0.68710   0.80850   1.000
    O457    O    0.06053   0.22905   0.79175   1.000
    O458    O    0.56024   0.22917   0.79205   1.000
    O459    O    0.80997   0.56409   0.79253   1.000
    O460    O    0.31023   0.56395   0.79257   1.000
    O461    O    0.08716   0.19331   0.83478   1.000
    O462    O    0.58693   0.19340   0.83494   1.000
    O463    O    0.83691   0.64258   0.83533   1.000
    O464    O    0.33703   0.64249   0.83535   1.000
    O465    O    0.00339   0.76731   0.85477   1.000
    O466    O    0.93997   0.75112   0.86831   1.000
    O467    O    0.50328   0.76756   0.85484   1.000
    O468    O    0.43990   0.75124   0.86833   1.000
    O469    O    0.75299   0.08726   0.85497   1.000
    O470    O    0.68965   0.11732   0.86835   1.000
    O471    O    0.25325   0.08740   0.85511   1.000
    O472    O    0.18985   0.11738   0.86836   1.000
    O473    O    0.11939   0.15254   0.88103   1.000
    O474    O    0.05653   0.18462   0.88987   1.000
    O475    O    0.61924   0.15257   0.88109   1.000
    O476    O    0.55643   0.18476   0.89010   1.000
    O477    O    0.86949   0.72925   0.88130   1.000
    O478    O    0.80660   0.70654   0.89044   1.000
    O479    O    0.36945   0.72922   0.88128   1.000
    O480    O    0.30660   0.70640   0.89040   1.000
    O481    O    0.38907   0.85379   0.94596   1.000
    O482    O    0.41369   0.97316   0.94624   1.000
    O483    O    0.28859   0.91583   0.94630   1.000
loop_
    _geom_bond_atom_site_label_1
    _geom_bond_atom_site_label_2
    _geom_bond_distance
    _geom_bond_site_symmetry_2
    _ccdc_geom_bond_type
    C1     O232      1.31490      .   S
    C217   O232      1.31490  1_565   S
    C1     O233      1.37523      .   S
    C223   O233      1.37523      .   S
    C1     O234      1.21823      .   S
    C207   O234      1.21823      .   S
    C1     O235      1.21824  1_554   S
    C203   O235      1.21824      .   S
    C1     O236      1.31590  1_544   S
    C219   O236      1.31590      .   S
    C70    O237      0.54503      .   S
    C170   O237      0.54503      .   S
    C49    O238      0.54502      .   S
    C145   O238      0.54502      .   S
    C71    O239      0.54477      .   S
    C171   O239      0.54477      .   S
    C48    O240      0.54503      .   S
    C144   O240      0.54503      .   S
    C222   O241      1.31559      .   S
    C2     O241      1.31559  1_566   S
    C210   O242      0.67397      .   S
    C170   O242      0.67397      .   S
    C210   O243      0.67387      .   S
    C172   O243      0.67387      .   S
    C210   O244      1.21823      .   S
    C2     O244      1.21823  1_556   S
    C211   O245      0.67382      .   S
    C171   O245      0.67382      .   S
    C211   O246      0.67389      .   S
    C173   O246      0.67389      .   S
    C211   O247      0.58708      .   S
    C3     O247      0.58708      .   S
    C206   O248      0.67401      .   S
    C144   O248      0.67401      .   S
    C206   O249      0.67383      .   S
    C146   O249      0.67383      .   S
    C207   O250      0.67398      .   S
    C145   O250      0.67398      .   S
    C207   O251      0.67394      .   S
    C147   O251      0.67394      .   S
    C170   O252      0.69535      .   S
    C168   O252      0.69535      .   S
    C145   O253      0.69537      .   S
    C143   O253      0.69537      .   S
    C171   O254      0.69577      .   S
    C169   O254      0.69577      .   S
    C144   O255      0.69539      .   S
    C142   O255      0.69539      .   S
    C73    O256      0.54599      .   S
    C173   O256      0.54599      .   S
    C51    O257      0.54618      .   S
    C146   O257      0.54618  1_455   S
    C72    O258      0.54599      .   S
    C172   O258      0.54599      .   S
    C50    O259      0.54603      .   S
    C147   O259      0.54603      .   S
    C146   O260      0.70074      .   S
    C138   O260      0.70074      .   S
    C173   O261      0.70071      .   S
    C165   O261      0.70071      .   S
    C172   O262      0.70076      .   S
    C164   O262      0.70076      .   S
    C147   O263      0.70067      .   S
    C139   O263      0.70067      .   S
    C143   O264      0.54504      .   S
    C47    O264      0.54504      .   S
    C143   O265      0.69701      .   S
    C141   O265      0.69701      .   S
    C168   O266      0.54506      .   S
    C68    O266      0.54506      .   S
    C168   O267      0.69708      .   S
    C166   O267      0.69708      .   S
    C142   O268      0.54505      .   S
    C46    O268      0.54505      .   S
    C142   O269      0.69711      .   S
    C140   O269      0.69711      .   S
    C169   O270      0.54505      .   S
    C69    O270      0.54505      .   S
    C169   O271      0.69707      .   S
    C167   O271      0.69707      .   S
    C138   O272      0.70010      .   S
    C140   O272      0.70010      .   S
    C138   O273      0.75698  1_455   S
    C137   O273      0.75698      .   S
    C139   O274      0.70006      .   S
    C141   O274      0.70006      .   S
    C139   O275      0.75720      .   S
    C136   O275      0.75720      .   S
    C165   O276      0.70009      .   S
    C167   O276      0.70009      .   S
    C165   O277      0.75714      .   S
    C163   O277      0.75714      .   S
    C164   O278      0.70013      .   S
    C166   O278      0.70013      .   S
    C164   O279      0.75700      .   S
    C162   O279      0.75700      .   S
    C41    O280      0.55020      .   S
    C137   O280      0.55020      .   S
    C40    O281      0.55034      .   S
    C136   O281      0.55034      .   S
    C63    O282      0.55036      .   S
    C163   O282      0.55036      .   S
    C62    O283      0.55020      .   S
    C162   O283      0.55020      .   S
    C141   O284      0.54504      .   S
    C45    O284      0.54504      .   S
    C140   O285      0.54524      .   S
    C44    O285      0.54524      .   S
    C166   O286      0.54516      .   S
    C66    O286      0.54516      .   S
    C167   O287      0.54518      .   S
    C67    O287      0.54518      .   S
    C137   O288      0.54764      .   S
    C43    O288      0.54764      .   S
    C137   O289      0.74131      .   S
    C205   O289      0.74131      .   S
    C136   O290      0.54766      .   S
    C42    O290      0.54766      .   S
    C136   O291      0.74124      .   S
    C204   O291      0.74124      .   S
    C163   O292      0.54772      .   S
    C65    O292      0.54772      .   S
    C163   O293      0.74136      .   S
    C209   O293      0.74136      .   S
    C162   O294      0.54784      .   S
    C64    O294      0.54784      .   S
    C162   O295      0.74149      .   S
    C208   O295      0.74149      .   S
    C39    O296      0.55023      .   S
    C135   O296      0.55023      .   S
    C38    O297      0.55005      .   S
    C134   O297      0.55005      .   S
    C61    O298      0.55005      .   S
    C161   O298      0.55005      .   S
    C60    O299      0.24498      .   S
    C0     O299      0.24498      .   S
    C36    O300      0.54580      .   S
    C130   O300      0.54580      .   S
    C59    O301      0.54586      .   S
    C157   O301      0.54586      .   S
    C37    O302      0.54607      .   S
    C131   O302      0.54607      .   S
    C58    O303      0.54583      .   S
    C156   O303      0.54583      .   S
    C75    O304      0.54486      .   S
    C176   O304      0.54486  1_455   S
    C8     O305      0.54536      .   S
    C98    O305      0.54536      .   S
    C74    O306      0.54529      .   S
    C177   O306      0.54529      .   S
    C9     O307      0.54528      .   S
    C99    O307      0.54528      .   S
    C135   O308      0.65431      .   S
    C205   O308      0.65431      .   S
    C135   O309      0.71222      .   S
    C133   O309      0.71222      .   S
    C161   O310      0.65435      .   S
    C209   O310      0.65435  1_565   S
    C161   O311      0.71211      .   S
    C159   O311      0.71211      .   S
    C134   O312      0.65431      .   S
    C204   O312      0.65431      .   S
    C134   O313      0.71206      .   S
    C132   O313      0.71206      .   S
    C160   O314      0.65439      .   S
    C208   O314      0.65439  1_565   S
    C160   O315      0.71212      .   S
    C158   O315      0.71212      .   S
    C160   O316      0.55034      .   S
    C0     O316      0.55034      .   S
    C205   O317      1.01144      .   S
    C6     O317      1.01144      .   S
    C204   O318      1.01055      .   S
    C7     O318      1.01055      .   S
    C209   O319      1.01014      .   S
    C5     O319      1.01014  1_545   S
    C208   O320      1.01010      .   S
    C4     O320      1.01010      .   S
    C130   O321      0.70866      .   S
    C132   O321      0.70866      .   S
    C130   O322      0.69058      .   S
    C128   O322      0.69058      .   S
    C157   O323      0.70861      .   S
    C159   O323      0.70861      .   S
    C157   O324      0.69062      .   S
    C155   O324      0.69062      .   S
    C131   O325      0.70856      .   S
    C133   O325      0.70856      .   S
    C131   O326      0.69074      .   S
    C129   O326      0.69074      .   S
    C156   O327      0.70871      .   S
    C158   O327      0.70871      .   S
    C156   O328      0.69060      .   S
    C154   O328      0.69060      .   S
    C76    O329      0.54533      .   S
    C178   O329      0.54533      .   S
    C10    O330      0.54522      .   S
    C100   O330      0.54522      .   S
    C77    O331      0.54529      .   S
    C179   O331      0.54529      .   S
    C11    O332      0.54527      .   S
    C101   O332      0.54527      .   S
    C176   O333      0.69190      .   S
    C178   O333      0.69190      .   S
    C176   O334      0.71211      .   S
    C174   O334      0.71211      .   S
    C98    O335      0.69176      .   S
    C100   O335      0.69176      .   S
    C98    O336      0.71142      .   S
    C96    O336      0.71142      .   S
    C177   O337      0.69211      .   S
    C179   O337      0.69211      .   S
    C177   O338      0.71144      .   S
    C175   O338      0.71144      .   S
    C99    O339      0.69210      .   S
    C101   O339      0.69210      .   S
    C99    O340      0.71153      .   S
    C97    O340      0.71153      .   S
    C57    O341      0.58491      .   S
    C155   O341      0.58491      .   S
    C159   O342      0.71594      .   S
    C149   O342      0.71594      .   S
    C34    O343      0.54431      .   S
    C128   O343      0.54431      .   S
    C133   O344      0.71580      .   S
    C123   O344      0.71580      .   S
    C132   O345      0.71566      .   S
    C122   O345      0.71566      .   S
    C158   O346      0.71581      .   S
    C148   O346      0.71581      .   S
    C35    O347      0.54429      .   S
    C129   O347      0.54429      .   S
    C56    O348      0.54431      .   S
    C154   O348      0.54431      .   S
    C231   O349      0.65405      .   S
    C175   O349      0.65405      .   S
    C231   O350      0.98424      .   S
    C7     O350      0.98424      .   S
    C230   O351      0.65400      .   S
    C174   O351      0.65400      .   S
    C230   O352      0.98339      .   S
    C6     O352      0.98339  1_655   S
    C225   O353      0.65403      .   S
    C97    O353      0.65403      .   S
    C225   O354      0.98503      .   S
    C5     O354      0.98503  1_545   S
    C224   O355      0.65406      .   S
    C96    O355      0.65406      .   S
    C224   O356      0.98343      .   S
    C4     O356      0.98343      .   S
    C178   O357      0.70369      .   S
    C180   O357      0.70369      .   S
    C100   O358      0.70407      .   S
    C102   O358      0.70407      .   S
    C179   O359      0.70363      .   S
    C181   O359      0.70363      .   S
    C101   O360      0.70371      .   S
    C103   O360      0.70371      .   S
    C155   O361      0.70320      .   S
    C153   O361      0.70320      .   S
    C128   O362      0.70369      .   S
    C126   O362      0.70369      .   S
    C129   O363      0.70348      .   S
    C127   O363      0.70348      .   S
    C154   O364      0.70366      .   S
    C152   O364      0.70366      .   S
    C174   O365      0.71589      .   S
    C184   O365      0.71589      .   S
    C175   O366      0.71583      .   S
    C185   O366      0.71583      .   S
    C96    O367      0.71522      .   S
    C106   O367      0.71522      .   S
    C97    O368      0.71586      .   S
    C107   O368      0.71586      .   S
    C6     O369      0.98329      .   S
    C227   O369      0.98329      .   S
    C6     O370      1.01026  1_655   S
    C212   O370      1.01026      .   S
    C5     O371      0.98449      .   S
    C229   O371      0.98449      .   S
    C5     O372      1.01035      .   S
    C201   O372      1.01035      .   S
    C7     O373      0.98474      .   S
    C226   O373      0.98474      .   S
    C7     O374      1.01103      .   S
    C213   O374      1.01103      .   S
    C4     O375      0.98336  1_565   S
    C228   O375      0.98336      .   S
    C4     O376      1.01105  1_565   S
    C200   O376      1.01105      .   S
    C149   O377      0.65407      .   S
    C229   O377      0.65407      .   S
    C149   O378      0.71141      .   S
    C151   O378      0.71141      .   S
    C123   O379      0.65404      .   S
    C227   O379      0.65404      .   S
    C123   O380      0.71146      .   S
    C125   O380      0.71146      .   S
    C122   O381      0.65399      .   S
    C226   O381      0.65399      .   S
    C122   O382      0.71175      .   S
    C124   O382      0.71175      .   S
    C148   O383      0.65403      .   S
    C228   O383      0.65403      .   S
    C148   O384      0.71151      .   S
    C150   O384      0.71151      .   S
    C180   O385      0.54429      .   S
    C78    O385      0.54429      .   S
    C180   O386      0.69058      .   S
    C182   O386      0.69058      .   S
    C102   O387      0.54399      .   S
    C12    O387      0.54399      .   S
    C102   O388      0.69071      .   S
    C104   O388      0.69071      .   S
    C181   O389      0.54434      .   S
    C79    O389      0.54434      .   S
    C181   O390      0.69072      .   S
    C183   O390      0.69072      .   S
    C103   O391      0.54431      .   S
    C13    O391      0.54431      .   S
    C103   O392      0.69053      .   S
    C105   O392      0.69053      .   S
    C153   O393      0.69248      .   S
    C151   O393      0.69248      .   S
    C153   O394      0.54534      .   S
    C55    O394      0.54534      .   S
    C126   O395      0.69207      .   S
    C124   O395      0.69207      .   S
    C126   O396      0.54526      .   S
    C32    O396      0.54526      .   S
    C127   O397      0.69200      .   S
    C125   O397      0.69200      .   S
    C127   O398      0.54545      .   S
    C33    O398      0.54545      .   S
    C152   O399      0.69202      .   S
    C150   O399      0.69202      .   S
    C152   O400      0.54530      .   S
    C54    O400      0.54530      .   S
    C184   O401      0.70871      .   S
    C182   O401      0.70871      .   S
    C184   O402      0.71217      .   S
    C186   O402      0.71217      .   S
    C185   O403      0.70851      .   S
    C183   O403      0.70851      .   S
    C185   O404      0.71225      .   S
    C187   O404      0.71225      .   S
    C106   O405      0.70902      .   S
    C104   O405      0.70902      .   S
    C106   O406      0.71241      .   S
    C108   O406      0.71241      .   S
    C107   O407      0.70865      .   S
    C105   O407      0.70865      .   S
    C107   O408      0.71193      .   S
    C109   O408      0.71193      .   S
    C151   O409      0.54532      .   S
    C53    O409      0.54532      .   S
    C124   O410      0.54532      .   S
    C31    O410      0.54532      .   S
    C125   O411      0.54534  1_655   S
    C30    O411      0.54534      .   S
    C150   O412      0.54502      .   S
    C52    O412      0.54502      .   S
    C182   O413      0.54585      .   S
    C80    O413      0.54585      .   S
    C183   O414      0.54551      .   S
    C81    O414      0.54551      .   S
    C104   O415      0.54584      .   S
    C14    O415      0.54584      .   S
    C105   O416      0.54585      .   S
    C15    O416      0.54585      .   S
    C212   O417      0.65418      .   S
    C186   O417      0.65418      .   S
    C212   O418      0.74146      .   S
    C188   O418      0.74146      .   S
    C201   O419      0.65439  1_545   S
    C109   O419      0.65439      .   S
    C201   O420      0.74140      .   S
    C111   O420      0.74140      .   S
    C213   O421      0.65415      .   S
    C187   O421      0.65415      .   S
    C213   O422      0.74133      .   S
    C189   O422      0.74133      .   S
    C200   O423      0.65434  1_545   S
    C108   O423      0.65434      .   S
    C200   O424      0.74132      .   S
    C110   O424      0.74132      .   S
    C186   O425      0.55006      .   S
    C82    O425      0.55006      .   S
    C187   O426      0.55004      .   S
    C83    O426      0.55004      .   S
    C109   O427      0.55010      .   S
    C17    O427      0.55010      .   S
    C108   O428      0.55008      .   S
    C16    O428      0.55008      .   S
    C22    O429      0.54526      .   S
    C114   O429      0.54526      .   S
    C23    O430      0.54524      .   S
    C115   O430      0.54524      .   S
    C89    O431      0.54521      .   S
    C193   O431      0.54521      .   S
    C88    O432      0.54521      .   S
    C192   O432      0.54521      .   S
    C86    O433      0.54761      .   S
    C188   O433      0.54761      .   S
    C20    O434      0.54770      .   S
    C110   O434      0.54770      .   S
    C21    O435      0.54761      .   S
    C111   O435      0.54761      .   S
    C87    O436      0.54774      .   S
    C189   O436      0.54774      .   S
    C188   O437      0.55035      .   S
    C84    O437      0.55035      .   S
    C188   O438      0.75730      .   S
    C191   O438      0.75730  1_655   S
    C111   O439      0.55034      .   S
    C19    O439      0.55034      .   S
    C111   O440      0.75699      .   S
    C113   O440      0.75699      .   S
    C189   O441      0.55036      .   S
    C85    O441      0.55036      .   S
    C189   O442      0.75713      .   S
    C190   O442      0.75713      .   S
    C110   O443      0.55029      .   S
    C18    O443      0.55029      .   S
    C110   O444      0.75700      .   S
    C112   O444      0.75700      .   S
    C114   O445      0.70010      .   S
    C112   O445      0.70010      .   S
    C114   O446      0.69693      .   S
    C116   O446      0.69693      .   S
    C115   O447      0.70006      .   S
    C113   O447      0.70006      .   S
    C115   O448      0.69708      .   S
    C117   O448      0.69708      .   S
    C193   O449      0.70012      .   S
    C191   O449      0.70012      .   S
    C193   O450      0.69702      .   S
    C195   O450      0.69702      .   S
    C192   O451      0.70005      .   S
    C190   O451      0.70005      .   S
    C192   O452      0.69707      .   S
    C194   O452      0.69707      .   S
    C113   O453      0.70070      .   S
    C121   O453      0.70070      .   S
    C112   O454      0.70067      .   S
    C120   O454      0.70067      .   S
    C191   O455      0.70076      .   S
    C199   O455      0.70076      .   S
    C190   O456      0.70072      .   S
    C198   O456      0.70072      .   S
    C24    O457      0.54490      .   S
    C116   O457      0.54490      .   S
    C25    O458      0.54504      .   S
    C117   O458      0.54504      .   S
    C91    O459      0.54507      .   S
    C195   O459      0.54507      .   S
    C90    O460      0.54504      .   S
    C194   O460      0.54504      .   S
    C116   O461      0.69576      .   S
    C118   O461      0.69576      .   S
    C117   O462      0.69396      .   S
    C119   O462      0.69396      .   S
    C195   O463      0.69533      .   S
    C197   O463      0.69533      .   S
    C194   O464      0.69534      .   S
    C196   O464      0.69534      .   S
    C199   O465      0.54624  1_655   S
    C94    O465      0.54624      .   S
    C199   O466      0.67397      .   S
    C215   O466      0.67397      .   S
    C198   O467      0.54604      .   S
    C95    O467      0.54604      .   S
    C198   O468      0.67393      .   S
    C214   O468      0.67393      .   S
    C121   O469      0.54602      .   S
    C29    O469      0.54602      .   S
    C121   O470      0.67389      .   S
    C203   O470      0.67389      .   S
    C120   O471      0.54599      .   S
    C28    O471      0.54599      .   S
    C120   O472      0.67383      .   S
    C202   O472      0.67383      .   S
    C118   O473      0.67397      .   S
    C202   O473      0.67397      .   S
    C118   O474      0.54501      .   S
    C26    O474      0.54501      .   S
    C119   O475      0.67461      .   S
    C203   O475      0.67461      .   S
    C119   O476      0.54596      .   S
    C27    O476      0.54596      .   S
    C197   O477      0.67394      .   S
    C215   O477      0.67394      .   S
    C197   O478      0.54513      .   S
    C93    O478      0.54513      .   S
    C196   O479      0.67400      .   S
    C214   O479      0.67400      .   S
    C196   O480      0.54503      .   S
    C92    O480      0.54503      .   S
    C214   O481      1.21828      .   S
    C2     O481      1.21828      .   S
    C220   O482      1.31591  1_545   S
    C2     O482      1.31591      .   S
    C218   O483      1.37505      .   S
    C2     O483      1.37505      .   S
