# CIF file generated by openbabel 2.4.90, see http://openbabel.sf.net
data_I
_chemical_name_common ''
_cell_length_a 14.732
_cell_length_b 14.779
_cell_length_c 15.757
_cell_angle_alpha 117.881
_cell_angle_beta 97.495
_cell_angle_gamma 89.92
_space_group_name_H-M_alt 'P 1'
_space_group_name_Hall 'P 1'
loop_
    _symmetry_equiv_pos_as_xyz
    x,y,z
loop_
    _atom_site_label
    _atom_site_type_symbol
    _atom_site_fract_x
    _atom_site_fract_y
    _atom_site_fract_z
    _atom_site_occupancy
    N0      N    0.54958   0.62114   0.62930   1.000
    N1      N    0.99388   0.71152   0.66038   1.000
    N2      N    0.00577   0.28843   0.33942   1.000
    N3      N    0.21520   0.29991   0.50187   1.000
    N4      N    0.70065   0.99220   0.37081   1.000
    N5      N    0.79958   0.00798   0.62928   1.000
    N6      N    0.45026   0.37936   0.37080   1.000
    N7      N    0.24425   0.94865   0.66047   1.000
    N8      N    0.04744   0.99640   0.10726   1.000
    N9      N    0.30106   0.85401   0.21470   1.000
    N10     N    0.95242   0.00425   0.89301   1.000
    Zr11    Zr   0.15291   0.06220   0.31424   1.000
    O12     O    0.19953   0.00256   0.30192   1.000
    O13     O    0.17761   0.13722   0.38076   1.000
    Zr14    Zr   0.49988   0.50023   0.50003   1.000
    O15     O    0.48127   0.45490   0.45157   1.000
    O16     O    0.48901   0.41707   0.50161   1.000
    O17     O    0.51852   0.54557   0.54851   1.000
    O18     O    0.51106   0.58330   0.49840   1.000
    Zr19    Zr   0.66797   0.01364   0.02680   1.000
    O20     O    0.62631   0.13334   0.07752   1.000
    O21     O    0.66652   0.06917   0.94924   1.000
    Zr22    Zr   0.33178   0.98667   0.97302   1.000
    O23     O    0.33133   0.93376   0.05362   1.000
    O24     O    0.37348   0.86698   0.92236   1.000
    Zr25    Zr   0.99963   0.49990   0.49991   1.000
    O26     O    0.99831   0.56351   0.53190   1.000
    O27     O    0.00442   0.56789   0.55617   1.000
    O28     O    0.99499   0.43190   0.44361   1.000
    O29     O    0.00078   0.43636   0.46793   1.000
    Zr30    Zr   0.87507   0.94247   0.10000   1.000
    O31     O    0.85493   0.90902   0.12664   1.000
    Zr32    Zr   0.75044   0.00019   0.50000   1.000
    O33     O    0.76124   0.91541   0.49847   1.000
    O34     O    0.73177   0.99719   0.45155   1.000
    O35     O    0.76886   0.00311   0.54848   1.000
    O36     O    0.73952   0.08493   0.50139   1.000
    Zr37    Zr   0.25043   0.99987   0.50010   1.000
    O38     O    0.24925   0.96828   0.53206   1.000
    O39     O    0.25686   0.96242   0.41261   1.000
    O40     O    0.24153   0.09369   0.50865   1.000
    O41     O    0.25504   0.98805   0.55636   1.000
loop_
    _geom_bond_atom_site_label_1
    _geom_bond_atom_site_label_2
    _geom_bond_distance
    _geom_bond_site_symmetry_2
    _ccdc_geom_bond_type
    Zr11   O12       1.07677      .   S
    N9     O12       2.57881  1_565   S
    Zr11   O13       1.12921      .   S
    N3     O13       2.27289      .   S
    Zr14   O15       0.75791      .   S
    N6     O15       1.26319      .   S
    Zr14   O16       1.25169      .   S
    N6     O16       1.87201      .   S
    Zr14   O17       0.75827      .   S
    N0     O17       1.26378      .   S
    Zr14   O18       1.25156      .   S
    N0     O18       1.87244      .   S
    Zr19   O20       1.71684      .   S
    N6     O20       5.35609      .   S
    Zr19   O21       1.76022  1_554   S
    N5     O21       5.32797      .   S
    Zr22   O23       1.77642  1_556   S
    N9     O23       3.33533      .   S
    Zr22   O24       1.71703      .   S
    N0     O24       5.35371      .   S
    Zr25   O26       0.83523      .   S
    N1     O26       2.18624      .   S
    Zr25   O27       0.97541  1_655   S
    N1     O27       2.00787  1_655   S
    Zr25   O28       0.97571      .   S
    N2     O28       2.00691  1_455   S
    Zr25   O29       0.83397  1_655   S
    N2     O29       2.18704      .   S
    Zr30   O31       0.85768      .   S
    N4     O31       4.39649      .   S
    Zr32   O33       1.25227  1_545   S
    N5     O33       1.87084  1_545   S
    Zr32   O34       0.75761  1_545   S
    N4     O34       1.26268      .   S
    Zr32   O35       0.75776      .   S
    N5     O35       1.26293      .   S
    Zr32   O36       1.25280      .   S
    N4     O36       1.87008  1_565   S
    Zr37   O38       0.83318      .   S
    N7     O38       2.18433      .   S
    Zr37   O39       1.23944      .   S
    N9     O39       2.92739      .   S
    Zr37   O40       1.33687  1_565   S
    N3     O40       3.12099      .   S
    Zr37   O41       0.97484      .   S
    N7     O41       2.00417      .   S
