# CIF file generated by openbabel 2.4.90, see http://openbabel.sf.net
data_I
_chemical_name_common ''
_cell_length_a 14.732
_cell_length_b 14.779
_cell_length_c 15.757
_cell_angle_alpha 117.881
_cell_angle_beta 97.495
_cell_angle_gamma 89.92
_space_group_name_H-M_alt 'P 1'
_space_group_name_Hall 'P 1'
loop_
    _symmetry_equiv_pos_as_xyz
    x,y,z
loop_
    _atom_site_label
    _atom_site_type_symbol
    _atom_site_fract_x
    _atom_site_fract_y
    _atom_site_fract_z
    _atom_site_occupancy
    Zr0     Zr   0.12484   0.05802   0.30000   1.000
    Zr1     Zr   0.62483   0.05792   0.00010   1.000
    Zr2     Zr   0.37483   0.94237   0.99976   1.000
    Zr3     Zr   0.87507   0.94247   0.10000   1.000
    Zr4     Zr   0.25043   0.99987   0.50010   1.000
    Zr5     Zr   0.75044   0.00019   0.50000   1.000
    Zr6     Zr   0.99963   0.49990   0.49991   1.000
    Zr7     Zr   0.49988   0.50023   0.50003   1.000
    Zr8     Zr   0.15199   0.05690   0.28467   1.000
    Zr9     Zr   0.18190   0.07166   0.35805   1.000
    Zr10    Zr   0.54723   0.99625   0.10700   1.000
    Zr11    Zr   0.20235   0.88929   0.89283   1.000
    Zr12    Zr   0.70253   0.88939   0.89300   1.000
    Zr13    Zr   0.45255   0.00396   0.89272   1.000
    Zr14    Zr   0.29739   0.11108   0.10676   1.000
    Zr15    Zr   0.79731   0.11101   0.10708   1.000
    O16     O    0.58603   0.02708   0.05355   1.000
    O17     O    0.71107   0.08446   0.05359   1.000
    O18     O    0.66368   0.97365   0.94655   1.000
    O19     O    0.33611   0.02673   0.05326   1.000
    O20     O    0.13842   0.05746   0.29234   1.000
    O21     O    0.15337   0.06484   0.32903   1.000
    O22     O    0.41369   0.97316   0.94624   1.000
    O23     O    0.28859   0.91583   0.94630   1.000
    N24     N    0.54958   0.62114   0.62930   1.000
    O25     O    0.53716   0.59091   0.59698   1.000
    O26     O    0.52224   0.66637   0.49676   1.000
    O27     O    0.41517   0.74728   0.87170   1.000
    N28     N    0.99388   0.71152   0.66038   1.000
    O29     O    0.00922   0.63589   0.61243   1.000
    O30     O    0.99699   0.62712   0.56389   1.000
    N31     N    0.00577   0.28843   0.33942   1.000
    O32     O    0.99034   0.36391   0.38731   1.000
    O33     O    0.00193   0.37283   0.43594   1.000
    N34     N    0.21520   0.29991   0.50187   1.000
    O35     O    0.20231   0.21224   0.44728   1.000
    O36     O    0.23263   0.18751   0.51721   1.000
    N37     N    0.70065   0.99220   0.37081   1.000
    O38     O    0.71310   0.99419   0.40311   1.000
    O39     O    0.72861   0.16967   0.50278   1.000
    O40     O    0.83479   0.87557   0.15328   1.000
    N41     N    0.79958   0.00798   0.62928   1.000
    O42     O    0.78729   0.00603   0.59696   1.000
    O43     O    0.77204   0.83062   0.49695   1.000
    O44     O    0.66506   0.12471   0.87169   1.000
    N45     N    0.45026   0.37936   0.37080   1.000
    O46     O    0.46267   0.40958   0.40311   1.000
    O47     O    0.47815   0.33391   0.50319   1.000
    O48     O    0.58465   0.25304   0.12825   1.000
    N49     N    0.24425   0.94865   0.66047   1.000
    O50     O    0.25965   0.97622   0.61263   1.000
    O51     O    0.24808   0.93669   0.56402   1.000
    N52     N    0.04744   0.99640   0.10726   1.000
    N53     N    0.30106   0.85401   0.21470   1.000
    O54     O    0.26329   0.92497   0.32511   1.000
    O55     O    0.24616   0.94291   0.28960   1.000
    O56     O    0.33088   0.88084   0.13422   1.000
    N57     N    0.95242   0.00425   0.89301   1.000
loop_
    _geom_bond_atom_site_label_1
    _geom_bond_atom_site_label_2
    _geom_bond_distance
    _geom_bond_site_symmetry_2
    _ccdc_geom_bond_type
    Zr1    O16       1.31490      .   S
    Zr10   O16       1.31490  1_565   S
    Zr1    O17       1.37523      .   S
    Zr15   O17       1.37523      .   S
    Zr1    O18       1.31590  1_544   S
    Zr12   O18       1.31590      .   S
    Zr14   O19       1.31559      .   S
    Zr2    O19       1.31559  1_566   S
    Zr8    O20       0.24498      .   S
    Zr0    O20       0.24498      .   S
    Zr9    O21       0.55034      .   S
    Zr0    O21       0.55034      .   S
    Zr13   O22       1.31591  1_545   S
    Zr2    O22       1.31591      .   S
    Zr11   O23       1.37505      .   S
    Zr2    O23       1.37505      .   S
    N24    O25       0.50551      .   S
    Zr7    O25       1.51654      .   S
    N24    O26       2.46093      .   S
    Zr7    O26       2.50312      .   S
    N24    O27       4.15786      .   S
    Zr2    O27       2.75773      .   S
    N28    O29       1.06068  1_655   S
    Zr6    O29       1.95083  1_655   S
    N28    O30       1.45382      .   S
    Zr6    O30       1.67045      .   S
    N31    O32       1.05930  1_455   S
    Zr6    O32       1.95142      .   S
    N31    O33       1.45604      .   S
    Zr6    O33       1.66795  1_655   S
    N34    O35       1.17059      .   S
    Zr9    O35       1.88239      .   S
    N34    O36       1.80045      .   S
    Zr4    O36       2.67373  1_565   S
    N37    O38       0.50507      .   S
    Zr5    O38       1.51522  1_545   S
    N37    O39       2.46006  1_565   S
    Zr5    O39       2.50560      .   S
    N37    O40       3.85440      .   S
    Zr3    O40       1.71535      .   S
    N41    O42       0.50517      .   S
    Zr5    O42       1.51552      .   S
    N41    O43       2.46033  1_545   S
    Zr5    O43       2.50454  1_545   S
    N41    O44       4.15875      .   S
    Zr1    O44       2.75720  1_554   S
    N45    O46       0.50528      .   S
    Zr7    O46       1.51583      .   S
    N45    O47       2.46118      .   S
    Zr7    O47       2.50338      .   S
    N45    O48       4.15960      .   S
    Zr1    O48       2.75766      .   S
    N49    O50       1.05731      .   S
    Zr4    O50       1.94968      .   S
    N49    O51       1.45426      .   S
    Zr4    O51       1.66636      .   S
    N53    O54       1.72649      .   S
    Zr4    O54       2.47887      .   S
    N53    O55       1.60283      .   S
    Zr9    O55       2.00539  1_545   S
    N53    O56       1.60452      .   S
    Zr2    O56       2.81000  1_556   S
