# CIF file generated by openbabel 2.4.90, see http://openbabel.sf.net
data_I
_chemical_name_common ''
_cell_length_a 13.72
_cell_length_b 14.236
_cell_length_c 15.975
_cell_angle_alpha 90.004
_cell_angle_beta 89.996
_cell_angle_gamma 89.99
_space_group_name_H-M_alt 'P 1'
_space_group_name_Hall 'P 1'
loop_
    _symmetry_equiv_pos_as_xyz
    x,y,z
loop_
    _atom_site_label
    _atom_site_type_symbol
    _atom_site_fract_x
    _atom_site_fract_y
    _atom_site_fract_z
    _atom_site_occupancy
    C0      C    0.13704   0.13315   0.88279   1.000
    C1      C    0.63680   0.13530   0.88168   1.000
    C2      C    0.11394   0.86291   0.61375   1.000
    C3      C    0.61372   0.86495   0.61300   1.000
    C4      C    0.11381   0.86412   0.38340   1.000
    C5      C    0.61393   0.86225   0.38270   1.000
    C6      C    0.13690   0.13168   0.11282   1.000
    C7      C    0.63689   0.12972   0.11167   1.000
    C8      C    0.36329   0.63129   0.61310   1.000
    C9      C    0.86388   0.63379   0.61486   1.000
    C10     C    0.38673   0.36430   0.88420   1.000
    C11     C    0.88702   0.36668   0.88587   1.000
    C12     C    0.38676   0.36303   0.11404   1.000
    C13     C    0.88669   0.36060   0.11580   1.000
    C14     C    0.36393   0.63329   0.38246   1.000
    C15     C    0.86335   0.63070   0.38435   1.000
    O16     O    0.39189   0.19284   0.99856   1.000
    O17     O    0.89200   0.19293   0.99680   1.000
    O18     O    0.22160   0.15278   0.91129   1.000
    O19     O    0.72145   0.15635   0.90900   1.000
    O20     O    0.02946   0.84365   0.58508   1.000
    O21     O    0.52890   0.84336   0.58647   1.000
    O22     O    0.05683   0.16854   0.90880   1.000
    O23     O    0.55633   0.16868   0.90937   1.000
    O24     O    0.19430   0.82735   0.58830   1.000
    O25     O    0.69420   0.83114   0.58606   1.000
    O26     O    0.35839   0.80261   0.49913   1.000
    O27     O    0.85839   0.80268   0.49789   1.000
    O28     O    0.02902   0.84324   0.41043   1.000
    O29     O    0.52955   0.84364   0.41203   1.000
    O30     O    0.22160   0.15265   0.08540   1.000
    O31     O    0.72137   0.14929   0.08304   1.000
    O32     O    0.19432   0.83063   0.41060   1.000
    O33     O    0.69434   0.82698   0.40832   1.000
    O34     O    0.05645   0.16541   0.08561   1.000
    O35     O    0.55658   0.16537   0.08606   1.000
    O36     O    0.10849   0.69188   0.49717   1.000
    O37     O    0.60848   0.69186   0.49970   1.000
    O38     O    0.27885   0.65062   0.58412   1.000
    O39     O    0.77915   0.65442   0.58729   1.000
    O40     O    0.47120   0.34502   0.91311   1.000
    O41     O    0.97176   0.34526   0.91285   1.000
    O42     O    0.44365   0.66659   0.58720   1.000
    O43     O    0.94431   0.66705   0.58701   1.000
    O44     O    0.30636   0.32901   0.91010   1.000
    O45     O    0.80662   0.33280   0.91307   1.000
    O46     O    0.14196   0.30378   0.99933   1.000
    O47     O    0.64184   0.30384   0.99986   1.000
    O48     O    0.47148   0.34164   0.08697   1.000
    O49     O    0.97113   0.34146   0.08683   1.000
    O50     O    0.27916   0.65432   0.40974   1.000
    O51     O    0.77889   0.65045   0.41302   1.000
    O52     O    0.30635   0.32915   0.08687   1.000
    O53     O    0.80634   0.32535   0.08984   1.000
    O54     O    0.44435   0.66699   0.40992   1.000
    O55     O    0.94367   0.66649   0.40977   1.000
loop_
    _geom_bond_atom_site_label_1
    _geom_bond_atom_site_label_2
    _geom_bond_distance
    _geom_bond_site_symmetry_2
    _ccdc_geom_bond_type
    O31    C7        1.27682      .   S
    O30    C6        1.27740      .   S
    O34    C6        1.27972      .   S
    O35    C7        1.28022      .   S
    O49    C13       1.27682      .   S
    O52    C12       1.28003      .   S
    O48    C12       1.27694      .   S
    O53    C13       1.28027      .   S
    C14    O50       1.27744      .   S
    C14    O54       1.28072      .   S
    C5     O33       1.27933      .   S
    C5     O29       1.27670      .   S
    C4     O28       1.27602      .   S
    C4     O32       1.27916      .   S
    C15    O55       1.28022      .   S
    C15    O51       1.27725      .   S
    O38    C8        1.27746      .   S
    O20    C2        1.27619      .   S
    O25    C3        1.27904      .   S
    O21    C3        1.27608      .   S
    O43    C9        1.28062      .   S
    O42    C8        1.28042      .   S
    O39    C9        1.27730      .   S
    O24    C2        1.27931      .   S
    C1     O19       1.27640      .   S
    C1     O23       1.28062      .   S
    C0     O22       1.27955      .   S
    C0     O18       1.27734      .   S
    C10    O44       1.28045      .   S
    C10    O40       1.27736      .   S
    C11    O41       1.27690      .   S
    C11    O45       1.27998      .   S
