# CIF file generated by openbabel 2.4.90, see http://openbabel.sf.net
data_I
_chemical_name_common ''
_cell_length_a 13.234
_cell_length_b 13.275
_cell_length_c 14.003
_cell_angle_alpha 83.848
_cell_angle_beta 78.344
_cell_angle_gamma 88.408
_space_group_name_H-M_alt 'P 1'
_space_group_name_Hall 'P 1'
loop_
    _symmetry_equiv_pos_as_xyz
    x,y,z
loop_
    _atom_site_label
    _atom_site_type_symbol
    _atom_site_fract_x
    _atom_site_fract_y
    _atom_site_fract_z
    _atom_site_occupancy
    Zn0     Zn   0.87952   0.67551   0.12019   1.000
    Zn1     Zn   0.14665   0.32900   0.67461   1.000
    Zn2     Zn   0.12048   0.32450   0.87984   1.000
    Zn3     Zn   0.85335   0.67101   0.32542   1.000
    C4      C    0.06995   0.67292   0.20119   1.000
    C5      C    0.66480   0.67263   0.24828   1.000
    C6      C    0.86975   0.87291   0.20396   1.000
    C7      C    0.86823   0.47309   0.24036   1.000
    C8      C    0.93005   0.32710   0.79885   1.000
    C9      C    0.33520   0.32738   0.75175   1.000
    C10     C    0.13024   0.12710   0.79608   1.000
    C11     C    0.13178   0.52693   0.75967   1.000
    O12     O    0.03672   0.68045   0.12126   1.000
    O13     O    0.01433   0.66215   0.28726   1.000
    O14     O    0.72031   0.67084   0.16290   1.000
    O15     O    0.69799   0.67554   0.32735   1.000
    O16     O    0.86225   0.82675   0.28974   1.000
    O17     O    0.87578   0.83104   0.12521   1.000
    O18     O    0.85467   0.51478   0.31998   1.000
    O19     O    0.88436   0.51945   0.15420   1.000
    O20     O    0.96328   0.31956   0.87878   1.000
    O21     O    0.00000   0.33786   0.71278   1.000
    O22     O    0.27969   0.32917   0.83713   1.000
    O23     O    0.30201   0.32447   0.67269   1.000
    O24     O    0.13775   0.17326   0.71030   1.000
    O25     O    0.12422   0.16897   0.87483   1.000
    O26     O    0.14534   0.48524   0.68005   1.000
    O27     O    0.11564   0.48056   0.84583   1.000
    Ts28    Ts   0.87891   0.67542   0.07120   1.000
    Ts29    Ts   0.14797   0.32945   0.62515   1.000
    Ts30    Ts   0.12109   0.32459   0.92883   1.000
    Ts31    Ts   0.85203   0.67056   0.37489   1.000
    Og32    Og   0.10823   0.67336   0.19860   1.000
    Og33    Og   0.62650   0.67211   0.25103   1.000
    Og34    Og   0.87037   0.91084   0.20078   1.000
    Og35    Og   0.86740   0.43519   0.24338   1.000
    Og36    Og   0.89177   0.32666   0.80143   1.000
    Og37    Og   0.37350   0.32790   0.74900   1.000
    Og38    Og   0.12963   0.08917   0.79926   1.000
    Og39    Og   0.13260   0.56482   0.75665   1.000
loop_
    _geom_bond_atom_site_label_1
    _geom_bond_atom_site_label_2
    _geom_bond_distance
    _geom_bond_site_symmetry_2
    _ccdc_geom_bond_type
    Zn0    O12       2.08633  1_655   S
    Zn0    O17       2.07233      .   S
    Zn0    O19       2.07751      .   S
    Zn0    O14       2.07143      .   S
    O12    C4        1.27619      .   S
    O17    C6        1.27462      .   S
    O19    C7        1.27442      .   S
    O14    C5        1.27275      .   S
    C4     O13       1.27484      .   S
    C6     O16       1.27502      .   S
    C7     O18       1.27566      .   S
    C5     O15       1.27544      .   S
    O13    Zn3       2.09222  1_455   S
    O16    Zn3       2.07514      .   S
    O18    Zn3       2.08300      .   S
    Zn3    O15       2.05005      .   S
    O23    Zn1       2.05004      .   S
    O23    C9        1.27543      .   S
    Zn1    O26       2.08299      .   S
    Zn1    O24       2.07514      .   S
    Zn1    O21       1.90986      .   S
    O26    C11       1.27567      .   S
    O24    C10       1.27502      .   S
    O21    C8        1.35997  1_455   S
    C9     O22       1.27275      .   S
    C11    O27       1.27442      .   S
    C10    O25       1.27462      .   S
    C8     O20       1.27619      .   S
    O22    Zn2       2.07141      .   S
    O27    Zn2       2.07750      .   S
    O25    Zn2       2.07234      .   S
    O20    Zn2       2.08633  1_655   S
    Zn3    Zn0       2.81856      .   S
    Zn1    Zn2       2.81855      .   S
    Zn0    Ts28      0.68781      .   S
    Zn1    Ts29      0.68876      .   S
    Zn2    Ts30      0.68781      .   S
    Zn3    Ts31      0.68876      .   S
    C4     Og32      0.50071      .   S
    C5     Og33      0.50078      .   S
    C6     Og34      0.50090      .   S
    C7     Og35      0.50052      .   S
    C8     Og36      0.50071      .   S
    C9     Og37      0.50078      .   S
    C10    Og38      0.50090      .   S
    C11    Og39      0.50052      .   S
