# CIF file generated by openbabel 2.4.90, see http://openbabel.sf.net
data_I
_chemical_name_common ''
_cell_length_a 13.234
_cell_length_b 13.275
_cell_length_c 14.003
_cell_angle_alpha 83.848
_cell_angle_beta 78.344
_cell_angle_gamma 88.408
_space_group_name_H-M_alt 'P 1'
_space_group_name_Hall 'P 1'
loop_
    _symmetry_equiv_pos_as_xyz
    x,y,z
loop_
    _atom_site_label
    _atom_site_type_symbol
    _atom_site_fract_x
    _atom_site_fract_y
    _atom_site_fract_z
    _atom_site_occupancy
    C0      C    0.85335   0.67101   0.32542   1.000
    C1      C    0.87952   0.67551   0.12019   1.000
    C2      C    0.14665   0.32900   0.67461   1.000
    C3      C    0.12048   0.32450   0.87984   1.000
    C4      C    0.21909   0.68068   0.03492   1.000
    C5      C    0.40908   0.67988   0.02130   1.000
    C6      C    0.17300   0.66789   0.34852   1.000
    C7      C    0.56171   0.67669   0.10162   1.000
    C8      C    0.51682   0.66417   0.41472   1.000
    C9      C    0.32610   0.66254   0.42949   1.000
    C10     C    0.85371   0.00000   0.34868   1.000
    C11     C    0.89521   0.18929   0.01813   1.000
    C12     C    0.89241   0.00088   0.03636   1.000
    C13     C    0.88393   0.35108   0.09494   1.000
    C14     C    0.84806   0.34566   0.40707   1.000
    C15     C    0.84538   0.15701   0.42546   1.000
    C16     C    0.88425   0.83169   0.94869   1.000
    C17     C    0.87660   0.83811   0.77193   1.000
    C18     C    0.85291   0.51124   0.81249   1.000
    C19     C    0.87002   0.51852   0.98516   1.000
    C20     C    0.78711   0.82124   0.65514   1.000
    C21     C    0.78529   0.81349   0.47809   1.000
    C22     C    0.91205   0.52545   0.48229   1.000
    C23     C    0.92753   0.52230   0.65699   1.000
    C24     C    0.78091   0.31933   0.96511   1.000
    C25     C    0.59092   0.32013   0.97874   1.000
    C26     C    0.82700   0.33211   0.65151   1.000
    C27     C    0.43829   0.32333   0.89841   1.000
    C28     C    0.48318   0.33584   0.58531   1.000
    C29     C    0.67390   0.33747   0.57054   1.000
    C30     C    0.14629   0.00569   0.65135   1.000
    C31     C    0.10479   0.81073   0.98190   1.000
    C32     C    0.10759   0.99913   0.96367   1.000
    C33     C    0.11607   0.64893   0.90509   1.000
    C34     C    0.15194   0.65436   0.59297   1.000
    C35     C    0.15462   0.84300   0.57457   1.000
    C36     C    0.11574   0.16832   0.05134   1.000
    C37     C    0.12341   0.16190   0.22810   1.000
    C38     C    0.14709   0.48878   0.18755   1.000
    C39     C    0.12998   0.48149   0.01488   1.000
    C40     C    0.21290   0.17877   0.34489   1.000
    C41     C    0.21471   0.18652   0.52194   1.000
    C42     C    0.08795   0.47456   0.51774   1.000
    C43     C    0.07247   0.47771   0.34304   1.000
    C44     C    0.06995   0.67292   0.20119   1.000
    C45     C    0.18479   0.67424   0.19343   1.000
    C46     C    0.25226   0.67781   0.10022   1.000
    C47     C    0.35751   0.67729   0.09295   1.000
    C48     C    0.40126   0.67367   0.17802   1.000
    C49     C    0.33349   0.66993   0.27256   1.000
    C50     C    0.22562   0.67033   0.27753   1.000
    C51     C    0.50914   0.67389   0.17264   1.000
    C52     C    0.54988   0.67109   0.25653   1.000
    C53     C    0.48278   0.66691   0.34989   1.000
    C54     C    0.37740   0.66616   0.35759   1.000
    C55     C    0.66480   0.67263   0.24828   1.000
    C56     C    0.86975   0.87291   0.20396   1.000
    C57     C    0.87161   0.98671   0.19441   1.000
    C58     C    0.86190   0.03788   0.27701   1.000
    C59     C    0.86243   0.14504   0.26964   1.000
    C60     C    0.87291   0.20102   0.17445   1.000
    C61     C    0.88413   0.14683   0.09060   1.000
    C62     C    0.88341   0.04254   0.10042   1.000
    C63     C    0.87432   0.30821   0.16698   1.000
    C64     C    0.86576   0.35940   0.24942   1.000
    C65     C    0.85504   0.30366   0.34338   1.000
    C66     C    0.85354   0.19945   0.35312   1.000
    C67     C    0.86823   0.47309   0.24036   1.000
    C68     C    0.87776   0.76282   0.91461   1.000
    C69     C    0.87178   0.76537   0.81656   1.000
    C70     C    0.86389   0.67434   0.77615   1.000
    C71     C    0.85848   0.67256   0.67200   1.000
    C72     C    0.86192   0.58408   0.83841   1.000
    C73     C    0.86980   0.58726   0.93525   1.000
    C74     C    0.81790   0.75471   0.61961   1.000
    C75     C    0.81515   0.75083   0.52149   1.000
    C76     C    0.88698   0.58964   0.52382   1.000
    C77     C    0.89358   0.58822   0.62160   1.000
    C78     C    0.93005   0.32710   0.79885   1.000
    C79     C    0.81521   0.32576   0.80660   1.000
    C80     C    0.74774   0.32220   0.89982   1.000
    C81     C    0.64249   0.32272   0.90708   1.000
    C82     C    0.59874   0.32635   0.82202   1.000
    C83     C    0.66651   0.33008   0.72747   1.000
    C84     C    0.77438   0.32968   0.72250   1.000
    C85     C    0.49086   0.32612   0.82740   1.000
    C86     C    0.45012   0.32893   0.74351   1.000
    C87     C    0.51722   0.33310   0.65014   1.000
    C88     C    0.62260   0.33385   0.64244   1.000
    C89     C    0.33520   0.32738   0.75175   1.000
    C90     C    0.13024   0.12710   0.79608   1.000
    C91     C    0.12839   0.01330   0.80562   1.000
    C92     C    0.13810   0.96213   0.72302   1.000
    C93     C    0.13757   0.85497   0.73039   1.000
    C94     C    0.12709   0.79899   0.82558   1.000
    C95     C    0.11587   0.85318   0.90943   1.000
    C96     C    0.11659   0.95748   0.89961   1.000
    C97     C    0.12568   0.69180   0.83305   1.000
    C98     C    0.13424   0.64061   0.75061   1.000
    C99     C    0.14497   0.69636   0.65666   1.000
    C100    C    0.14646   0.80056   0.64692   1.000
    C101    C    0.13178   0.52693   0.75967   1.000
    C102    C    0.12224   0.23719   0.08543   1.000
    C103    C    0.12822   0.23464   0.18347   1.000
    C104    C    0.13611   0.32568   0.22388   1.000
    C105    C    0.14152   0.32745   0.32803   1.000
    C106    C    0.13808   0.41593   0.16162   1.000
    C107    C    0.13020   0.41275   0.06478   1.000
    C108    C    0.18210   0.24530   0.38042   1.000
    C109    C    0.18485   0.24918   0.47854   1.000
    C110    C    0.11302   0.41038   0.47621   1.000
    C111    C    0.10642   0.41179   0.37843   1.000
    C112    C    0.87769   0.67526   0.97322   1.000
    C113    C    0.84938   0.66967   0.47382   1.000
    C114    C    0.12231   0.32476   0.02681   1.000
    C115    C    0.15062   0.33034   0.52621   1.000
    C116    C    0.03672   0.68045   0.12126   1.000
    C117    C    0.01433   0.66215   0.28726   1.000
    C118    C    0.72031   0.67084   0.16290   1.000
    C119    C    0.69799   0.67554   0.32735   1.000
    C120    C    0.86225   0.82675   0.28974   1.000
    C121    C    0.87578   0.83104   0.12521   1.000
    C122    C    0.85467   0.51478   0.31998   1.000
    C123    C    0.88436   0.51945   0.15420   1.000
    C124    C    0.96328   0.31956   0.87878   1.000
    C125    C    0.00000   0.33786   0.71278   1.000
    C126    C    0.27969   0.32917   0.83713   1.000
    C127    C    0.30201   0.32447   0.67269   1.000
    C128    C    0.13775   0.17326   0.71030   1.000
    C129    C    0.12422   0.16897   0.87483   1.000
    C130    C    0.14534   0.48524   0.68005   1.000
    C131    C    0.11564   0.48056   0.84583   1.000
    O132    O    0.13009   0.44712   0.03983   1.000
    O133    O    0.88967   0.16806   0.05437   1.000
    O134    O    0.38329   0.67859   0.05713   1.000
    O135    O    0.12626   0.36875   0.04579   1.000
    O136    O    0.12227   0.28097   0.05612   1.000
    O137    O    0.12140   0.32463   0.95332   1.000
    O138    O    0.23568   0.67925   0.06757   1.000
    O139    O    0.88791   0.02171   0.06839   1.000
    O140    O    0.11899   0.20276   0.06838   1.000
    O141    O    0.13414   0.41434   0.11320   1.000
    O142    O    0.12523   0.23592   0.13445   1.000
    O143    O    0.88377   0.09468   0.09551   1.000
    O144    O    0.87852   0.17392   0.13253   1.000
    O145    O    0.30488   0.67755   0.09658   1.000
    O146    O    0.37938   0.67548   0.13548   1.000
    O147    O    0.87912   0.32964   0.13096   1.000
    O148    O    0.21852   0.67603   0.14682   1.000
    O149    O    0.87751   0.01462   0.14742   1.000
    O150    O    0.53543   0.67529   0.13713   1.000
    O151    O    0.95812   0.67798   0.12073   1.000
    O152    O    0.87765   0.75328   0.12270   1.000
    O153    O    0.88194   0.59748   0.13720   1.000
    O154    O    0.79991   0.67318   0.14155   1.000
    O155    O    0.87860   0.67538   0.04671   1.000
    O156    O    0.05333   0.67669   0.16122   1.000
    O157    O    0.87277   0.85198   0.16458   1.000
    O158    O    0.87629   0.49627   0.19728   1.000
    O159    O    0.14258   0.45235   0.17458   1.000
    O160    O    0.13709   0.37080   0.19275   1.000
    O161    O    0.69256   0.67174   0.20559   1.000
    O162    O    0.87362   0.25461   0.17072   1.000
    O163    O    0.87004   0.33381   0.20820   1.000
    O164    O    0.45520   0.67378   0.17533   1.000
    O165    O    0.52951   0.67249   0.21458   1.000
    O166    O    0.86768   0.17303   0.22205   1.000
    O167    O    0.36738   0.67180   0.22529   1.000
    O168    O    0.13217   0.28016   0.20368   1.000
    O169    O    0.12581   0.19827   0.20578   1.000
    O170    O    0.12737   0.67358   0.19731   1.000
    O171    O    0.20521   0.67229   0.23548   1.000
    O172    O    0.87068   0.92981   0.19919   1.000
    O173    O    0.86675   0.01230   0.23571   1.000
    O174    O    0.04214   0.66753   0.24422   1.000
    O175    O    0.86600   0.84983   0.24685   1.000
    O176    O    0.13882   0.32656   0.27596   1.000
    O177    O    0.86699   0.41624   0.24489   1.000
    O178    O    0.86145   0.49393   0.28017   1.000
    O179    O    0.60734   0.67186   0.25240   1.000
    O180    O    0.68140   0.67408   0.28781   1.000
    O181    O    0.86040   0.33153   0.29640   1.000
    O182    O    0.51633   0.66900   0.30321   1.000
    O183    O    0.86217   0.09146   0.27333   1.000
    O184    O    0.85799   0.17224   0.31138   1.000
    O185    O    0.27956   0.67013   0.27505   1.000
    O186    O    0.35545   0.66805   0.31508   1.000
    O187    O    0.85780   0.01894   0.31284   1.000
    O188    O    0.19931   0.66911   0.31303   1.000
    O189    O    0.93384   0.66658   0.30634   1.000
    O190    O    0.85780   0.74888   0.30758   1.000
    O191    O    0.85401   0.59289   0.32270   1.000
    O192    O    0.77567   0.67327   0.32638   1.000
    O193    O    0.85137   0.67034   0.39962   1.000
    O194    O    0.12397   0.36962   0.35323   1.000
    O195    O    0.16181   0.28638   0.35423   1.000
    O196    O    0.08945   0.44475   0.36074   1.000
    O197    O    0.85429   0.25155   0.34825   1.000
    O198    O    0.85155   0.32466   0.37522   1.000
    O199    O    0.19750   0.21204   0.36266   1.000
    O200    O    0.43009   0.66653   0.35374   1.000
    O201    O    0.49980   0.66554   0.38231   1.000
    O202    O    0.84946   0.17823   0.38929   1.000
    O203    O    0.35175   0.66435   0.39354   1.000
    O204    O    0.10972   0.41108   0.42732   1.000
    O205    O    0.18348   0.24724   0.42948   1.000
    O206    O    0.83226   0.71025   0.49766   1.000
    O207    O    0.86818   0.62965   0.49882   1.000
    O208    O    0.10048   0.44247   0.49698   1.000
    O209    O    0.13182   0.37036   0.50121   1.000
    O210    O    0.80022   0.78216   0.49979   1.000
    O211    O    0.19978   0.21785   0.50024   1.000
    O212    O    0.16774   0.28976   0.50238   1.000
    O213    O    0.89952   0.55754   0.50305   1.000
    O214    O    0.81652   0.75277   0.57055   1.000
    O215    O    0.89028   0.58893   0.57271   1.000
    O216    O    0.14863   0.32967   0.60041   1.000
    O217    O    0.64825   0.33566   0.60649   1.000
    O218    O    0.15054   0.82178   0.61074   1.000
    O219    O    0.50020   0.33447   0.61773   1.000
    O220    O    0.14845   0.67536   0.62481   1.000
    O221    O    0.80250   0.78798   0.63738   1.000
    O222    O    0.83819   0.71364   0.64580   1.000
    O223    O    0.91056   0.55526   0.63929   1.000
    O224    O    0.87603   0.63039   0.64680   1.000
    O225    O    0.56991   0.33348   0.64629   1.000
    O226    O    0.64455   0.33196   0.68495   1.000
    O227    O    0.14571   0.74846   0.65179   1.000
    O228    O    0.14201   0.82777   0.68865   1.000
    O229    O    0.48367   0.33102   0.69682   1.000
    O230    O    0.14220   0.98391   0.68719   1.000
    O231    O    0.80069   0.33090   0.68701   1.000
    O232    O    0.13960   0.66848   0.70363   1.000
    O233    O    0.86119   0.67345   0.72408   1.000
    O234    O    0.22433   0.32674   0.67365   1.000
    O235    O    0.31860   0.32593   0.71222   1.000
    O236    O    0.14599   0.40712   0.67733   1.000
    O237    O    0.14220   0.25113   0.69245   1.000
    O238    O    0.07332   0.33343   0.69369   1.000
    O239    O    0.13856   0.50608   0.71986   1.000
    O240    O    0.13400   0.15018   0.75319   1.000
    O241    O    0.96503   0.33248   0.75581   1.000
    O242    O    0.72044   0.32988   0.72499   1.000
    O243    O    0.79479   0.32772   0.76455   1.000
    O244    O    0.13783   0.90855   0.72671   1.000
    O245    O    0.13325   0.98772   0.76432   1.000
    O246    O    0.63262   0.32821   0.77474   1.000
    O247    O    0.13233   0.82698   0.77799   1.000
    O248    O    0.39266   0.32815   0.74763   1.000
    O249    O    0.47049   0.32752   0.78545   1.000
    O250    O    0.13301   0.58377   0.75514   1.000
    O251    O    0.12996   0.66621   0.79183   1.000
    O252    O    0.30744   0.32827   0.79444   1.000
    O253    O    0.12371   0.50374   0.80275   1.000
    O254    O    0.87419   0.80174   0.79425   1.000
    O255    O    0.86783   0.71985   0.79636   1.000
    O256    O    0.86291   0.62921   0.80728   1.000
    O257    O    0.12932   0.07020   0.80085   1.000
    O258    O    0.12723   0.14803   0.83545   1.000
    O259    O    0.87263   0.32643   0.80272   1.000
    O260    O    0.94667   0.32333   0.83881   1.000
    O261    O    0.12249   0.98539   0.85261   1.000
    O262    O    0.78148   0.32398   0.85321   1.000
    O263    O    0.85742   0.54766   0.82545   1.000
    O264    O    0.87477   0.76409   0.86558   1.000
    O265    O    0.54480   0.32623   0.82471   1.000
    O266    O    0.62062   0.32453   0.86455   1.000
    O267    O    0.12638   0.74540   0.82931   1.000
    O268    O    0.12148   0.82609   0.86751   1.000
    O269    O    0.46457   0.32472   0.86290   1.000
    O270    O    0.12088   0.67037   0.86907   1.000
    O271    O    0.20009   0.32684   0.85848   1.000
    O272    O    0.86586   0.58567   0.88683   1.000
    O273    O    0.11806   0.40253   0.86283   1.000
    O274    O    0.12235   0.24674   0.87733   1.000
    O275    O    0.04188   0.32203   0.87931   1.000
    O276    O    0.11623   0.90533   0.90452   1.000
    O277    O    0.11209   0.97831   0.93164   1.000
    O278    O    0.69512   0.32246   0.90345   1.000
    O279    O    0.76432   0.32076   0.93246   1.000
    O280    O    0.61671   0.32143   0.94291   1.000
    O281    O    0.11033   0.83195   0.94567   1.000
    O282    O    0.88101   0.79726   0.93165   1.000
    O283    O    0.87773   0.71904   0.94391   1.000
    O284    O    0.87374   0.63126   0.95424   1.000
    O285    O    0.86991   0.55289   0.96020   1.000
    O286    O    0.86644   0.67326   0.22281   1.000
    O287    O    0.13356   0.32675   0.77722   1.000
loop_
    _geom_bond_atom_site_label_1
    _geom_bond_atom_site_label_2
    _geom_bond_distance
    _geom_bond_site_symmetry_2
    _ccdc_geom_bond_type
    C39    O132      0.54431      .   S
    C107   O132      0.54431      .   S
    C11    O133      0.54562      .   S
    C61    O133      0.54562      .   S
    C5     O134      0.54568      .   S
    C47    O134      0.54568      .   S
    C114   O135      0.67462      .   S
    C107   O135      0.67462      .   S
    C114   O136      0.67458      .   S
    C102   O136      0.67458      .   S
    C114   O137      1.03171  1_554   S
    C3     O137      1.03171      .   S
    C4     O138      0.54399      .   S
    C46    O138      0.54399      .   S
    C12    O139      0.54413      .   S
    C62    O139      0.54413      .   S
    C36    O140      0.54442      .   S
    C102   O140      0.54442      .   S
    C107   O141      0.69303      .   S
    C106   O141      0.69303      .   S
    C102   O142      0.69393      .   S
    C103   O142      0.69393      .   S
    C61    O143      0.68832      .   S
    C62    O143      0.68832      .   S
    C61    O144      0.71116      .   S
    C60    O144      0.71116      .   S
    C47    O145      0.68792      .   S
    C46    O145      0.68792      .   S
    C47    O146      0.71084      .   S
    C48    O146      0.71084      .   S
    C13    O147      0.54474      .   S
    C63    O147      0.54474      .   S
    C46    O148      0.71086      .   S
    C45    O148      0.71086      .   S
    C62    O149      0.71068      .   S
    C57    O149      0.71068  1_565   S
    C7     O150      0.54504      .   S
    C51    O150      0.54504      .   S
    C1     O151      1.04316      .   S
    C116   O151      1.04316  1_455   S
    C1     O152      1.03616      .   S
    C121   O152      1.03616      .   S
    C1     O153      1.03875      .   S
    C123   O153      1.03875      .   S
    C1     O154      1.03571      .   S
    C118   O154      1.03571      .   S
    C1     O155      1.03171      .   S
    C112   O155      1.03171  1_556   S
    C116   O156      0.63810      .   S
    C44    O156      0.63810      .   S
    C121   O157      0.63731      .   S
    C56    O157      0.63731      .   S
    C123   O158      0.63721      .   S
    C67    O158      0.63721      .   S
    C106   O159      0.54321      .   S
    C38    O159      0.54321      .   S
    C106   O160      0.70088      .   S
    C104   O160      0.70088      .   S
    C118   O161      0.63637      .   S
    C55    O161      0.63637      .   S
    C63    O162      0.70797      .   S
    C60    O162      0.70797      .   S
    C63    O163      0.69254      .   S
    C64    O163      0.69254      .   S
    C51    O164      0.70722      .   S
    C48    O164      0.70722      .   S
    C51    O165      0.69237      .   S
    C52    O165      0.69237      .   S
    C60    O166      0.71881      .   S
    C59    O166      0.71881      .   S
    C48    O167      0.71906      .   S
    C49    O167      0.71906      .   S
    C103   O168      0.70157      .   S
    C104   O168      0.70157      .   S
    C103   O169      0.54432      .   S
    C37    O169      0.54432      .   S
    C45    O170      0.75107      .   S
    C44    O170      0.75107      .   S
    C45    O171      0.69353      .   S
    C50    O171      0.69353      .   S
    C57    O172      0.75135      .   S
    C56    O172      0.75135      .   S
    C57    O173      0.69267  1_565   S
    C58    O173      0.69267      .   S
    C44    O174      0.63742      .   S
    C117   O174      0.63742      .   S
    C56    O175      0.63751      .   S
    C120   O175      0.63751      .   S
    C104   O176      0.73866      .   S
    C105   O176      0.73866      .   S
    C67    O177      0.75078      .   S
    C64    O177      0.75078      .   S
    C67    O178      0.63783      .   S
    C122   O178      0.63783      .   S
    C55    O179      0.75117      .   S
    C52    O179      0.75117      .   S
    C55    O180      0.63772      .   S
    C119   O180      0.63772      .   S
    C64    O181      0.71070      .   S
    C65    O181      0.71070      .   S
    C52    O182      0.71048      .   S
    C53    O182      0.71048      .   S
    C59    O183      0.70764      .   S
    C58    O183      0.70764      .   S
    C59    O184      0.71109      .   S
    C66    O184      0.71109      .   S
    C49    O185      0.70754      .   S
    C50    O185      0.70754      .   S
    C49    O186      0.71118      .   S
    C54    O186      0.71118      .   S
    C58    O187      0.52979      .   S
    C10    O187      0.52979      .   S
    C50    O188      0.54519      .   S
    C6     O188      0.54519      .   S
    C117   O189      1.04611  1_455   S
    C0     O189      1.04611      .   S
    C120   O190      1.03757      .   S
    C0     O190      1.03757      .   S
    C122   O191      1.04150      .   S
    C0     O191      1.04150      .   S
    C0     O192      1.02502      .   S
    C119   O192      1.02502      .   S
    C0     O193      1.03313      .   S
    C113   O193      1.03313      .   S
    C105   O194      0.70276      .   S
    C111   O194      0.70276      .   S
    C105   O195      0.70194      .   S
    C108   O195      0.70194      .   S
    C43    O196      0.54504      .   S
    C111   O196      0.54504      .   S
    C65    O197      0.68788      .   S
    C66    O197      0.68788      .   S
    C65    O198      0.54435      .   S
    C14    O198      0.54435      .   S
    C40    O199      0.54450      .   S
    C108   O199      0.54450      .   S
    C53    O200      0.68850      .   S
    C54    O200      0.68850      .   S
    C53    O201      0.54446      .   S
    C8     O201      0.54446      .   S
    C66    O202      0.54589      .   S
    C15    O202      0.54589      .   S
    C54    O203      0.54591      .   S
    C9     O203      0.54591      .   S
    C111   O204      0.69382      .   S
    C110   O204      0.69382      .   S
    C108   O205      0.69415      .   S
    C109   O205      0.69415      .   S
    C113   O206      0.67384      .   S
    C75    O206      0.67384      .   S
    C113   O207      0.67428      .   S
    C76    O207      0.67428      .   S
    C110   O208      0.54470      .   S
    C42    O208      0.54470      .   S
    C110   O209      0.67428      .   S
    C115   O209      0.67428      .   S
    C21    O210      0.54494      .   S
    C75    O210      0.54494      .   S
    C109   O211      0.54494      .   S
    C41    O211      0.54494      .   S
    C109   O212      0.67385      .   S
    C115   O212      0.67385      .   S
    C22    O213      0.54470      .   S
    C76    O213      0.54470      .   S
    C75    O214      0.69415      .   S
    C74    O214      0.69415      .   S
    C76    O215      0.69382      .   S
    C77    O215      0.69382      .   S
    C115   O216      1.03313      .   S
    C2     O216      1.03313      .   S
    C29    O217      0.54591      .   S
    C88    O217      0.54591      .   S
    C35    O218      0.54590      .   S
    C100   O218      0.54590      .   S
    C28    O219      0.54445      .   S
    C87    O219      0.54445      .   S
    C34    O220      0.54434      .   S
    C99    O220      0.54434      .   S
    C74    O221      0.54450      .   S
    C20    O221      0.54450      .   S
    C74    O222      0.70194      .   S
    C71    O222      0.70194      .   S
    C77    O223      0.54503      .   S
    C23    O223      0.54503      .   S
    C77    O224      0.70275      .   S
    C71    O224      0.70275      .   S
    C88    O225      0.68850      .   S
    C87    O225      0.68850      .   S
    C88    O226      0.71118      .   S
    C83    O226      0.71118      .   S
    C100   O227      0.68787      .   S
    C99    O227      0.68787      .   S
    C100   O228      0.71109      .   S
    C93    O228      0.71109      .   S
    C87    O229      0.71048      .   S
    C86    O229      0.71048      .   S
    C30    O230      0.54508  1_545   S
    C92    O230      0.54508      .   S
    C26    O231      0.54518      .   S
    C84    O231      0.54518      .   S
    C99    O232      0.71070      .   S
    C98    O232      0.71070      .   S
    C71    O233      0.73866      .   S
    C70    O233      0.73866      .   S
    C127   O234      1.02502      .   S
    C2     O234      1.02502      .   S
    C127   O235      0.63771      .   S
    C89    O235      0.63771      .   S
    C2     O236      1.04149      .   S
    C130   O236      1.04149      .   S
    C2     O237      1.03757      .   S
    C128   O237      1.03757      .   S
    C2     O238      0.95493      .   S
    C125   O238      0.95493      .   S
    C130   O239      0.63783      .   S
    C101   O239      0.63783      .   S
    C128   O240      0.63751      .   S
    C90    O240      0.63751      .   S
    C125   O241      0.67998  1_455   S
    C78    O241      0.67998      .   S
    C84    O242      0.70755      .   S
    C83    O242      0.70755      .   S
    C84    O243      0.69353      .   S
    C79    O243      0.69353      .   S
    C92    O244      0.70764      .   S
    C93    O244      0.70764      .   S
    C92    O245      0.69267      .   S
    C91    O245      0.69267  1_545   S
    C83    O246      0.71905      .   S
    C82    O246      0.71905      .   S
    C93    O247      0.71881      .   S
    C94    O247      0.71881      .   S
    C86    O248      0.75117      .   S
    C89    O248      0.75117      .   S
    C86    O249      0.69237      .   S
    C85    O249      0.69237      .   S
    C98    O250      0.75077      .   S
    C101   O250      0.75077      .   S
    C98    O251      0.69254      .   S
    C97    O251      0.69254      .   S
    C89    O252      0.63637      .   S
    C126   O252      0.63637      .   S
    C101   O253      0.63721      .   S
    C131   O253      0.63721      .   S
    C17    O254      0.54431      .   S
    C69    O254      0.54431      .   S
    C70    O255      0.70157      .   S
    C69    O255      0.70157      .   S
    C70    O256      0.70088      .   S
    C72    O256      0.70088      .   S
    C90    O257      0.75135      .   S
    C91    O257      0.75135      .   S
    C90    O258      0.63731      .   S
    C129   O258      0.63731      .   S
    C78    O259      0.75106      .   S
    C79    O259      0.75106      .   S
    C78    O260      0.63810      .   S
    C124   O260      0.63810      .   S
    C91    O261      0.71068  1_545   S
    C96    O261      0.71068      .   S
    C79    O262      0.71086      .   S
    C80    O262      0.71086      .   S
    C18    O263      0.54321      .   S
    C72    O263      0.54321      .   S
    C69    O264      0.69393      .   S
    C68    O264      0.69393      .   S
    C82    O265      0.70723      .   S
    C85    O265      0.70723      .   S
    C82    O266      0.71085      .   S
    C81    O266      0.71085      .   S
    C94    O267      0.70797      .   S
    C97    O267      0.70797      .   S
    C94    O268      0.71115      .   S
    C95    O268      0.71115      .   S
    C85    O269      0.54504      .   S
    C27    O269      0.54504      .   S
    C97    O270      0.54474      .   S
    C33    O270      0.54474      .   S
    C126   O271      1.03571      .   S
    C3     O271      1.03571      .   S
    C72    O272      0.69302      .   S
    C73    O272      0.69302      .   S
    C131   O273      1.03875      .   S
    C3     O273      1.03875      .   S
    C129   O274      1.03617      .   S
    C3     O274      1.03617      .   S
    C124   O275      1.04316  1_655   S
    C3     O275      1.04316      .   S
    C96    O276      0.68833      .   S
    C95    O276      0.68833      .   S
    C96    O277      0.54413      .   S
    C32    O277      0.54413      .   S
    C80    O278      0.68792      .   S
    C81    O278      0.68792      .   S
    C80    O279      0.54400      .   S
    C24    O279      0.54400      .   S
    C81    O280      0.54568      .   S
    C25    O280      0.54568      .   S
    C95    O281      0.54562      .   S
    C31    O281      0.54562      .   S
    C68    O282      0.54441      .   S
    C16    O282      0.54441      .   S
    C68    O283      0.67458      .   S
    C112   O283      0.67458      .   S
    C73    O284      0.67462      .   S
    C112   O284      0.67462      .   S
    C73    O285      0.54431      .   S
    C19    O285      0.54431      .   S
    C0     O286      1.40928      .   S
    C1     O286      1.40928      .   S
    C2     O287      1.40927      .   S
    C3     O287      1.40927      .   S
