# CIF file generated by openbabel 2.4.90, see http://openbabel.sf.net
data_I
_chemical_name_common ''
_cell_length_a 13.234
_cell_length_b 13.275
_cell_length_c 14.003
_cell_angle_alpha 83.848
_cell_angle_beta 78.344
_cell_angle_gamma 88.408
_space_group_name_H-M_alt 'P 1'
_space_group_name_Hall 'P 1'
loop_
    _symmetry_equiv_pos_as_xyz
    x,y,z
loop_
    _atom_site_label
    _atom_site_type_symbol
    _atom_site_fract_x
    _atom_site_fract_y
    _atom_site_fract_z
    _atom_site_occupancy
    Zr0     Zr   0.85335   0.67101   0.32542   1.000
    Zr1     Zr   0.87952   0.67551   0.12019   1.000
    Zr2     Zr   0.14665   0.32900   0.67461   1.000
    Zr3     Zr   0.12048   0.32450   0.87984   1.000
    Zr4     Zr   0.06995   0.67292   0.20119   1.000
    Zr5     Zr   0.66480   0.67263   0.24828   1.000
    Zr6     Zr   0.86975   0.87291   0.20396   1.000
    Zr7     Zr   0.86823   0.47309   0.24036   1.000
    Zr8     Zr   0.93005   0.32710   0.79885   1.000
    Zr9     Zr   0.33520   0.32738   0.75175   1.000
    Zr10    Zr   0.13024   0.12710   0.79608   1.000
    Zr11    Zr   0.13178   0.52693   0.75967   1.000
    Zr12    Zr   0.03672   0.68045   0.12126   1.000
    Zr13    Zr   0.01433   0.66215   0.28726   1.000
    Zr14    Zr   0.72031   0.67084   0.16290   1.000
    Zr15    Zr   0.69799   0.67554   0.32735   1.000
    Zr16    Zr   0.86225   0.82675   0.28974   1.000
    Zr17    Zr   0.87578   0.83104   0.12521   1.000
    Zr18    Zr   0.85467   0.51478   0.31998   1.000
    Zr19    Zr   0.88436   0.51945   0.15420   1.000
    Zr20    Zr   0.96328   0.31956   0.87878   1.000
    Zr21    Zr   0.00000   0.33786   0.71278   1.000
    Zr22    Zr   0.27969   0.32917   0.83713   1.000
    Zr23    Zr   0.30201   0.32447   0.67269   1.000
    Zr24    Zr   0.13775   0.17326   0.71030   1.000
    Zr25    Zr   0.12422   0.16897   0.87483   1.000
    Zr26    Zr   0.14534   0.48524   0.68005   1.000
    Zr27    Zr   0.11564   0.48056   0.84583   1.000
    O28     O    0.95812   0.67798   0.12073   1.000
    O29     O    0.87765   0.75328   0.12270   1.000
    O30     O    0.88194   0.59748   0.13720   1.000
    O31     O    0.79991   0.67318   0.14155   1.000
    O32     O    0.05333   0.67669   0.16122   1.000
    O33     O    0.87277   0.85198   0.16458   1.000
    O34     O    0.87629   0.49627   0.19728   1.000
    O35     O    0.69256   0.67174   0.20559   1.000
    O36     O    0.04214   0.66753   0.24422   1.000
    O37     O    0.86600   0.84983   0.24685   1.000
    O38     O    0.86145   0.49393   0.28017   1.000
    O39     O    0.68140   0.67408   0.28781   1.000
    O40     O    0.93384   0.66658   0.30634   1.000
    O41     O    0.85780   0.74888   0.30758   1.000
    O42     O    0.85401   0.59289   0.32270   1.000
    O43     O    0.77567   0.67327   0.32638   1.000
    O44     O    0.22433   0.32674   0.67365   1.000
    O45     O    0.31860   0.32593   0.71222   1.000
    O46     O    0.14599   0.40712   0.67733   1.000
    O47     O    0.14220   0.25113   0.69245   1.000
    O48     O    0.07332   0.33343   0.69369   1.000
    O49     O    0.13856   0.50608   0.71986   1.000
    O50     O    0.13400   0.15018   0.75319   1.000
    O51     O    0.96503   0.33248   0.75581   1.000
    O52     O    0.30744   0.32827   0.79444   1.000
    O53     O    0.12371   0.50374   0.80275   1.000
    O54     O    0.12723   0.14803   0.83545   1.000
    O55     O    0.94667   0.32333   0.83881   1.000
    O56     O    0.20009   0.32684   0.85848   1.000
    O57     O    0.11806   0.40253   0.86283   1.000
    O58     O    0.12235   0.24674   0.87733   1.000
    O59     O    0.04188   0.32203   0.87931   1.000
    O60     O    0.86644   0.67326   0.22281   1.000
    O61     O    0.13356   0.32675   0.77722   1.000
    N62     N    0.13800   0.32717   0.27617   1.000
    O63     O    0.12970   0.32590   0.11474   1.000
    O64     O    0.14332   0.32842   0.43829   1.000
    N65     N    0.86200   0.67284   0.72387   1.000
    O66     O    0.85669   0.67159   0.56174   1.000
    O67     O    0.87030   0.67411   0.88529   1.000
    N68     N    0.63250   0.32794   0.77491   1.000
    O69     O    0.75257   0.32719   0.78882   1.000
    O70     O    0.51258   0.32805   0.76127   1.000
    N71     N    0.13102   0.82695   0.77815   1.000
    O72     O    0.13201   0.70536   0.76665   1.000
    O73     O    0.13017   0.94858   0.78950   1.000
    N74     N    0.36750   0.67207   0.22512   1.000
    O75     O    0.24743   0.67283   0.21121   1.000
    O76     O    0.48742   0.67197   0.23876   1.000
    N77     N    0.86899   0.17342   0.22188   1.000
    O78     O    0.86983   0.05161   0.21053   1.000
    O79     O    0.86799   0.29483   0.23339   1.000
loop_
    _geom_bond_atom_site_label_1
    _geom_bond_atom_site_label_2
    _geom_bond_distance
    _geom_bond_site_symmetry_2
    _ccdc_geom_bond_type
    Zr1    O28       1.04316      .   S
    Zr12   O28       1.04316  1_455   S
    Zr1    O29       1.03616      .   S
    Zr17   O29       1.03616      .   S
    Zr1    O30       1.03875      .   S
    Zr19   O30       1.03875      .   S
    Zr1    O31       1.03571      .   S
    Zr14   O31       1.03571      .   S
    Zr12   O32       0.63810      .   S
    Zr4    O32       0.63810      .   S
    Zr17   O33       0.63731      .   S
    Zr6    O33       0.63731      .   S
    Zr19   O34       0.63721      .   S
    Zr7    O34       0.63721      .   S
    Zr14   O35       0.63637      .   S
    Zr5    O35       0.63637      .   S
    Zr4    O36       0.63742      .   S
    Zr13   O36       0.63742      .   S
    Zr6    O37       0.63751      .   S
    Zr16   O37       0.63751      .   S
    Zr7    O38       0.63783      .   S
    Zr18   O38       0.63783      .   S
    Zr5    O39       0.63772      .   S
    Zr15   O39       0.63772      .   S
    Zr13   O40       1.04611  1_455   S
    Zr0    O40       1.04611      .   S
    Zr16   O41       1.03757      .   S
    Zr0    O41       1.03757      .   S
    Zr18   O42       1.04150      .   S
    Zr0    O42       1.04150      .   S
    Zr0    O43       1.02502      .   S
    Zr15   O43       1.02502      .   S
    Zr23   O44       1.02502      .   S
    Zr2    O44       1.02502      .   S
    Zr23   O45       0.63771      .   S
    Zr9    O45       0.63771      .   S
    Zr2    O46       1.04149      .   S
    Zr26   O46       1.04149      .   S
    Zr2    O47       1.03757      .   S
    Zr24   O47       1.03757      .   S
    Zr2    O48       0.95493      .   S
    Zr21   O48       0.95493      .   S
    Zr26   O49       0.63783      .   S
    Zr11   O49       0.63783      .   S
    Zr24   O50       0.63751      .   S
    Zr10   O50       0.63751      .   S
    Zr21   O51       0.67998  1_455   S
    Zr8    O51       0.67998      .   S
    Zr9    O52       0.63637      .   S
    Zr22   O52       0.63637      .   S
    Zr11   O53       0.63721      .   S
    Zr27   O53       0.63721      .   S
    Zr10   O54       0.63731      .   S
    Zr25   O54       0.63731      .   S
    Zr8    O55       0.63810      .   S
    Zr20   O55       0.63810      .   S
    Zr22   O56       1.03571      .   S
    Zr3    O56       1.03571      .   S
    Zr27   O57       1.03875      .   S
    Zr3    O57       1.03875      .   S
    Zr25   O58       1.03617      .   S
    Zr3    O58       1.03617      .   S
    Zr20   O59       1.04316  1_655   S
    Zr3    O59       1.04316      .   S
    Zr0    O60       1.40928      .   S
    Zr1    O60       1.40928      .   S
    Zr2    O61       1.40927      .   S
    Zr3    O61       1.40927      .   S
    N62    O63       2.28699      .   S
    Zr3    O63       3.31824  1_556   S
    N62    O64       2.28730      .   S
    Zr2    O64       3.31927      .   S
    N65    O66       2.28730      .   S
    Zr0    O66       3.31926      .   S
    N65    O67       2.28699      .   S
    Zr1    O67       3.31824  1_554   S
    N68    O69       1.63902      .   S
    Zr8    O69       2.38114      .   S
    N68    O70       1.63633      .   S
    Zr9    O70       2.37832      .   S
    N71    O72       1.63868      .   S
    Zr11   O72       2.38127      .   S
    N71    O73       1.63874      .   S
    Zr10   O73       2.38159  1_545   S
    N74    O75       1.63902      .   S
    Zr4    O75       2.38114      .   S
    N74    O76       1.63633      .   S
    Zr5    O76       2.37832      .   S
    N77    O78       1.64109      .   S
    Zr6    O78       2.38393  1_565   S
    N77    O79       1.63634      .   S
    Zr7    O79       2.37891      .   S
