# CIF file generated by openbabel 2.4.90, see http://openbabel.sf.net
data_I
_chemical_name_common ''
_cell_length_a 10.804
_cell_length_b 10.809
_cell_length_c 18.389
_cell_angle_alpha 73.81
_cell_angle_beta 73.85
_cell_angle_gamma 77.841
_space_group_name_H-M_alt 'P 1'
_space_group_name_Hall 'P 1'
loop_
    _symmetry_equiv_pos_as_xyz
    x,y,z
loop_
    _atom_site_label
    _atom_site_type_symbol
    _atom_site_fract_x
    _atom_site_fract_y
    _atom_site_fract_z
    _atom_site_occupancy
    H0      H    0.78733   0.56615   0.58581   1.000
    H1      H    0.11573   0.51025   0.72589   1.000
    H2      H    0.00492   0.41727   0.38592   1.000
    H3      H    0.19738   0.36008   0.95289   1.000
    H4      H    0.95868   0.36281   0.01324   1.000
    H5      H    0.87597   0.51756   0.78716   1.000
    H6      H    0.43487   0.21328   0.91374   1.000
    H7      H    0.48999   0.88510   0.77399   1.000
    H8      H    0.58116   0.99618   0.11464   1.000
    H9      H    0.63865   0.80373   0.54698   1.000
    H10     H    0.63691   0.04189   0.48658   1.000
    H11     H    0.48256   0.12451   0.71260   1.000
    H12     H    0.21331   0.43385   0.41441   1.000
    H13     H    0.88506   0.48991   0.27428   1.000
    H14     H    0.99606   0.58180   0.61425   1.000
    H15     H    0.80325   0.63910   0.04729   1.000
    H16     H    0.04166   0.63692   0.00000   1.000
    H17     H    0.12508   0.48196   0.21255   1.000
    H18     H    0.56544   0.78741   0.08638   1.000
    H19     H    0.50983   0.11629   0.22612   1.000
    H20     H    0.41824   0.00497   0.88532   1.000
    H21     H    0.35981   0.19771   0.45309   1.000
    H22     H    0.36277   0.95832   0.51319   1.000
    H23     H    0.51717   0.87606   0.28709   1.000
    C24     C    0.31103   0.44498   0.80051   1.000
    C25     C    0.88294   0.49095   0.48388   1.000
    C26     C    0.90391   0.44237   0.90366   1.000
    C27     C    0.76144   0.45671   0.93978   1.000
    C28     C    0.16994   0.43668   0.83608   1.000
    C29     C    0.75968   0.48283   0.46456   1.000
    C30     C    0.88066   0.53717   0.54851   1.000
    C31     C    0.08010   0.47878   0.78870   1.000
    C32     C    0.00377   0.45363   0.43571   1.000
    C33     C    0.12654   0.39281   0.91697   1.000
    C34     C    0.99412   0.39481   0.95059   1.000
    C35     C    0.94773   0.48210   0.82247   1.000
    C36     C    0.55335   0.69026   0.69934   1.000
    C37     C    0.50901   0.11714   0.01610   1.000
    C38     C    0.55759   0.09654   0.59614   1.000
    C39     C    0.54345   0.23895   0.56002   1.000
    C40     C    0.56267   0.83112   0.66379   1.000
    C41     C    0.51746   0.24002   0.03559   1.000
    C42     C    0.46318   0.11985   0.95120   1.000
    C43     C    0.52135   0.92083   0.71118   1.000
    C44     C    0.54554   0.99699   0.06461   1.000
    C45     C    0.60647   0.87452   0.58289   1.000
    C46     C    0.60503   0.00687   0.54925   1.000
    C47     C    0.51774   0.05278   0.67732   1.000
    C48     C    0.68998   0.55366   0.19957   1.000
    C49     C    0.11712   0.50906   0.51628   1.000
    C50     C    0.09675   0.55721   0.09613   1.000
    C51     C    0.23916   0.54284   0.05994   1.000
    C52     C    0.83088   0.56289   0.16408   1.000
    C53     C    0.24001   0.51746   0.53584   1.000
    C54     C    0.11986   0.46263   0.45165   1.000
    C55     C    0.92070   0.52132   0.21146   1.000
    C56     C    0.99695   0.54568   0.56441   1.000
    C57     C    0.87417   0.60672   0.08317   1.000
    C58     C    0.00654   0.60493   0.04950   1.000
    C59     C    0.05318   0.51732   0.17733   1.000
    C60     C    0.44503   0.31130   0.30066   1.000
    C61     C    0.49148   0.88286   0.98391   1.000
    C62     C    0.44217   0.90378   0.40360   1.000
    C63     C    0.45641   0.76130   0.43970   1.000
    C64     C    0.43635   0.17035   0.33629   1.000
    C65     C    0.48364   0.75954   0.96464   1.000
    C66     C    0.53697   0.88069   0.04884   1.000
    C67     C    0.47824   0.08062   0.28892   1.000
    C68     C    0.45412   0.00381   0.93531   1.000
    C69     C    0.39235   0.12694   0.41718   1.000
    C70     C    0.39398   0.99457   0.45080   1.000
    C71     C    0.48200   0.94770   0.32242   1.000
    O72     O    0.35010   0.46739   0.72707   1.000
    O73     O    0.38555   0.43015   0.84657   1.000
    O74     O    0.64799   0.51443   0.50857   1.000
    O75     O    0.68497   0.49893   0.89320   1.000
    O76     O    0.76566   0.44722   0.40325   1.000
    O77     O    0.72380   0.42953   0.01375   1.000
    O78     O    0.53018   0.65107   0.77282   1.000
    O79     O    0.56810   0.61604   0.65319   1.000
    O80     O    0.48720   0.35194   0.99128   1.000
    O81     O    0.50266   0.31542   0.60656   1.000
    O82     O    0.55206   0.23352   0.09732   1.000
    O83     O    0.56935   0.27651   0.48604   1.000
    O84     O    0.65067   0.53068   0.27303   1.000
    O85     O    0.61590   0.56816   0.15334   1.000
    O86     O    0.35205   0.48677   0.49182   1.000
    O87     O    0.31572   0.50092   0.10645   1.000
    O88     O    0.23346   0.55240   0.59744   1.000
    O89     O    0.27664   0.56969   0.00000   1.000
    O90     O    0.46804   0.35017   0.22719   1.000
    O91     O    0.42983   0.38591   0.34668   1.000
    O92     O    0.51424   0.64800   0.00913   1.000
    O93     O    0.49846   0.68496   0.39310   1.000
    O94     O    0.44929   0.76541   0.90293   1.000
    O95     O    0.42946   0.72355   0.51366   1.000
loop_
    _geom_bond_atom_site_label_1
    _geom_bond_atom_site_label_2
    _geom_bond_distance
    _geom_bond_site_symmetry_2
    _ccdc_geom_bond_type
    H16    C58       0.88294      .   S
    O89    C51       1.04206      .   S
    O92    C65       1.29025  1_554   S
    H4     C34       1.08710  1_554   S
    O77    C27       1.27340  1_554   S
    C37    C41       1.49523      .   S
    C37    C44       1.40424  1_545   S
    C37    C42       1.40479  1_554   S
    C41    O82       1.27042      .   S
    C41    O80       1.29073  1_554   S
    H15    C57       1.08824      .   S
    C66    C44       1.39306      .   S
    C66    H18       1.08955      .   S
    C66    C61       1.40484  1_554   S
    C58    C57       1.38981  1_455   S
    C58    C50       1.39929      .   S
    C51    C50       1.49054      .   S
    C51    O87       1.28090      .   S
    C44    H8        1.08874      .   S
    C57    C52       1.40359      .   S
    C50    C59       1.40444      .   S
    O85    C48       1.28024      .   S
    C52    C48       1.49275      .   S
    C52    C55       1.40387      .   S
    C59    C55       1.39065  1_455   S
    C59    H17       1.08886      .   S
    C48    O84       1.26695      .   S
    C55    H13       1.08937      .   S
    H19    C67       1.08929      .   S
    O90    C60       1.26659      .   S
    H23    C71       1.08884      .   S
    C67    C71       1.39318  1_545   S
    C67    C64       1.40403      .   S
    C60    C64       1.49287      .   S
    C60    O91       1.28098      .   S
    C71    C62       1.40448      .   S
    C64    C69       1.40349      .   S
    H2     C32       1.08874      .   S
    O93    C63       1.28117      .   S
    O76    C29       1.27043      .   S
    C62    C63       1.49097      .   S
    C62    C70       1.41271      .   S
    H12    C54       1.08949      .   S
    C69    C70       1.38989  1_545   S
    C69    H21       1.08821      .   S
    C32    C54       1.39290      .   S
    C32    C25       1.40915  1_455   S
    C63    O95       1.27333      .   S
    C70    H22       1.08327      .   S
    C54    C49       1.40426      .   S
    C29    C25       1.49581      .   S
    C29    O74       1.29044      .   S
    C25    C30       1.40443      .   S
    O83    C39       1.27351      .   S
    H10    C46       1.08668      .   S
    O86    C53       1.29085      .   S
    C49    C53       1.49509      .   S
    C49    C56       1.40188  1_455   S
    C53    O88       1.27026      .   S
    H9     C45       1.08824      .   S
    C30    C56       1.39310      .   S
    C30    H0        1.08958      .   S
    C46    C45       1.38994  1_545   S
    C46    C38       1.39885      .   S
    C39    C38       1.49040      .   S
    C39    O81       1.28095      .   S
    C56    H14       1.08876      .   S
    C45    C40       1.40360      .   S
    C38    C47       1.40434      .   S
    O79    C36       1.28045      .   S
    C40    C36       1.49290      .   S
    C40    C43       1.40396      .   S
    C47    C43       1.38494  1_545   S
    C47    H11       1.08885      .   S
    C36    O78       1.26690      .   S
    C43    H7        1.08937      .   S
    H1     C31       1.08931      .   S
    O72    C24       1.26655      .   S
    H5     C35       1.08885      .   S
    C31    C35       1.38891  1_455   S
    C31    C28       1.40410      .   S
    C24    C28       1.49322      .   S
    C24    O73       1.28092      .   S
    C35    C26       1.40448      .   S
    C28    C33       1.40346      .   S
    H20    C68       1.08876      .   S
    O75    C27       1.28113      .   S
    O94    C65       1.27038      .   S
    C26    C27       1.49085      .   S
    C26    C34       1.40301      .   S
    H6     C42       1.08950      .   S
    C33    C34       1.38988  1_455   S
    C33    H3        1.08823      .   S
    C68    C42       1.39295      .   S
    C68    C61       1.41328  1_545   S
    C65    C61       1.49575      .   S
