# CIF file generated by openbabel 2.4.90, see http://openbabel.sf.net
data_I
_chemical_name_common ''
_cell_length_a 10.804
_cell_length_b 10.809
_cell_length_c 18.389
_cell_angle_alpha 73.81
_cell_angle_beta 73.85
_cell_angle_gamma 77.841
_space_group_name_H-M_alt 'P 1'
_space_group_name_Hall 'P 1'
loop_
    _symmetry_equiv_pos_as_xyz
    x,y,z
loop_
    _atom_site_label
    _atom_site_type_symbol
    _atom_site_fract_x
    _atom_site_fract_y
    _atom_site_fract_z
    _atom_site_occupancy
    N0      N    0.00011   0.49995   0.50014   1.000
    N1      N    0.03669   0.44412   0.86991   1.000
    N2      N    0.50024   0.00010   0.00006   1.000
    N3      N    0.55538   0.96413   0.62992   1.000
    N4      N    0.96408   0.55526   0.13176   1.000
    N5      N    0.44387   0.03684   0.36998   1.000
    Zr6     Zr   0.47280   0.54508   0.89821   1.000
    O7      O    0.35287   0.50547   0.88468   1.000
    O8      O    0.64029   0.51407   0.89051   1.000
    O9      O    0.48146   0.38469   0.93531   1.000
    O10     O    0.50062   0.66309   0.81546   1.000
    O11     O    0.32110   0.55070   0.96932   1.000
    Zr12    Zr   0.54500   0.47277   0.39838   1.000
    O13     O    0.66298   0.50063   0.31606   1.000
    O14     O    0.55064   0.32108   0.46722   1.000
    O15     O    0.51390   0.64031   0.39062   1.000
    O16     O    0.50532   0.35293   0.38482   1.000
    O17     O    0.38466   0.48132   0.43550   1.000
    Zr18    Zr   0.52779   0.45435   0.10158   1.000
    O19     O    0.36035   0.48540   0.10973   1.000
    O20     O    0.64788   0.49380   0.11560   1.000
    O21     O    0.67952   0.44869   0.03268   1.000
    O22     O    0.51921   0.61499   0.06465   1.000
    O23     O    0.49934   0.33695   0.18438   1.000
    Zr24    Zr   0.45458   0.52748   0.60151   1.000
    O25     O    0.33705   0.49913   0.68430   1.000
    O26     O    0.44876   0.67933   0.53265   1.000
    O27     O    0.49397   0.64771   0.61507   1.000
    O28     O    0.48579   0.36013   0.60924   1.000
    O29     O    0.61514   0.51897   0.56455   1.000
    O30     O    0.32073   0.51961   0.56906   1.000
    O31     O    0.67900   0.48057   0.43101   1.000
    O32     O    0.48078   0.67904   0.93090   1.000
    O33     O    0.51988   0.32059   0.06904   1.000
loop_
    _geom_bond_atom_site_label_1
    _geom_bond_atom_site_label_2
    _geom_bond_distance
    _geom_bond_site_symmetry_2
    _ccdc_geom_bond_type
    Zr6    O7        1.54809      .   S
    N1     O7        3.70855      .   S
    Zr6    O8        1.74225      .   S
    N1     O8        4.11696  1_455   S
    Zr6    O9        1.66949      .   S
    N2     O9        3.96972  1_554   S
    Zr6    O10       1.69043      .   S
    N3     O10       4.00957      .   S
    Zr6    O11       1.79163      .   S
    N4     O11       4.17080  1_654   S
    Zr12   O13       1.68560      .   S
    N4     O13       3.99717      .   S
    Zr12   O14       1.77146      .   S
    N3     O14       4.17187  1_565   S
    Zr12   O15       1.74329      .   S
    N5     O15       4.11992  1_545   S
    Zr12   O16       1.54837      .   S
    N5     O16       3.71005      .   S
    Zr12   O17       1.66892      .   S
    N0     O17       3.96840      .   S
    Zr18   O19       1.74038      .   S
    N4     O19       4.11193  1_655   S
    Zr18   O20       1.55305      .   S
    N4     O20       3.71910      .   S
    Zr18   O21       1.77247      .   S
    N1     O21       4.17487  1_456   S
    Zr18   O22       1.67169      .   S
    N2     O22       3.97482  1_545   S
    Zr18   O23       1.68808      .   S
    N5     O23       4.00466      .   S
    Zr24   O25       1.68898      .   S
    N1     O25       4.00661      .   S
    Zr24   O26       1.77294      .   S
    N5     O26       4.17609  1_545   S
    Zr24   O27       1.55083      .   S
    N3     O27       3.71347      .   S
    Zr24   O28       1.74128      .   S
    N3     O28       4.11427  1_565   S
    Zr24   O29       1.67070      .   S
    N0     O29       3.97234  1_455   S
    Zr24   O30       1.73625      .   S
    N0     O30       4.06851      .   S
    Zr12   O31       1.73964      .   S
    N0     O31       4.07476  1_455   S
    Zr6    O32       1.74134      .   S
    N2     O32       4.07710  1_544   S
    N2     O33       4.06990      .   S
    Zr18   O33       1.73748      .   S
