# CIF file generated by openbabel 2.4.90, see http://openbabel.sf.net
data_I
_chemical_name_common ''
_cell_length_a 15.945
_cell_length_b 19.362
_cell_length_c 21.91
_cell_angle_alpha 64.228
_cell_angle_beta 88.743
_cell_angle_gamma 76.382
_space_group_name_H-M_alt 'P 1'
_space_group_name_Hall 'P 1'
loop_
    _symmetry_equiv_pos_as_xyz
    x,y,z
loop_
    _atom_site_label
    _atom_site_type_symbol
    _atom_site_fract_x
    _atom_site_fract_y
    _atom_site_fract_z
    _atom_site_occupancy
    H0      H    0.04688   0.09723   0.27779   1.000
    H1      H    0.04452   0.09850   0.77840   1.000
    H2      H    0.04688   0.59724   0.27779   1.000
    H3      H    0.04453   0.59851   0.77840   1.000
    H4      H    0.54689   0.09724   0.27778   1.000
    H5      H    0.54454   0.09850   0.77840   1.000
    H6      H    0.54689   0.59725   0.27779   1.000
    H7      H    0.54453   0.59851   0.77840   1.000
    H8      H    0.34626   0.02045   0.21539   1.000
    H9      H    0.34391   0.02171   0.71601   1.000
    H10     H    0.34627   0.52045   0.21539   1.000
    H11     H    0.34391   0.52172   0.71600   1.000
    H12     H    0.84628   0.02045   0.21539   1.000
    H13     H    0.84392   0.02171   0.71600   1.000
    H14     H    0.84628   0.52046   0.21539   1.000
    H15     H    0.84393   0.52172   0.71600   1.000
    H16     H    0.20938   0.14220   0.13751   1.000
    H17     H    0.20795   0.14280   0.63880   1.000
    H18     H    0.20939   0.64221   0.13751   1.000
    H19     H    0.20793   0.64279   0.63887   1.000
    H20     H    0.70942   0.14222   0.13750   1.000
    H21     H    0.70796   0.14280   0.63886   1.000
    H22     H    0.70941   0.64223   0.13750   1.000
    H23     H    0.70796   0.64279   0.63887   1.000
    H24     H    0.13922   0.15791   0.03130   1.000
    H25     H    0.13923   0.15795   0.53237   1.000
    H26     H    0.13924   0.65792   0.03131   1.000
    H27     H    0.13921   0.65794   0.53230   1.000
    H28     H    0.63927   0.15794   0.03130   1.000
    H29     H    0.63924   0.15796   0.53237   1.000
    H30     H    0.63926   0.65794   0.03130   1.000
    H31     H    0.63923   0.65794   0.53238   1.000
    H32     H    0.14692   0.01530   0.40861   1.000
    H33     H    0.14605   0.01508   0.90924   1.000
    H34     H    0.14693   0.51531   0.40861   1.000
    H35     H    0.14604   0.51509   0.90924   1.000
    H36     H    0.64694   0.01530   0.40861   1.000
    H37     H    0.64606   0.01509   0.90924   1.000
    H38     H    0.64694   0.51531   0.40861   1.000
    H39     H    0.64606   0.51509   0.90924   1.000
    H40     H    0.99761   0.29600   0.16272   1.000
    H41     H    0.99499   0.29691   0.66237   1.000
    H42     H    0.99761   0.79599   0.16273   1.000
    H43     H    0.99499   0.79694   0.66236   1.000
    H44     H    0.49761   0.29597   0.16273   1.000
    H45     H    0.49500   0.29692   0.66237   1.000
    H46     H    0.49761   0.79598   0.16273   1.000
    H47     H    0.49501   0.79693   0.66237   1.000
    H48     H    0.33283   0.10146   0.47603   1.000
    H49     H    0.33136   0.10254   0.97578   1.000
    H50     H    0.33284   0.60146   0.47603   1.000
    H51     H    0.33136   0.60255   0.97570   1.000
    H52     H    0.83285   0.10145   0.47603   1.000
    H53     H    0.83137   0.10254   0.97578   1.000
    H54     H    0.83284   0.60147   0.47603   1.000
    H55     H    0.83137   0.60255   0.97570   1.000
    H56     H    0.41850   0.31996   0.05770   1.000
    H57     H    0.41730   0.32045   0.55692   1.000
    H58     H    0.41849   0.81997   0.05770   1.000
    H59     H    0.41731   0.82046   0.55692   1.000
    H60     H    0.91852   0.32000   0.05768   1.000
    H61     H    0.91732   0.32045   0.55690   1.000
    H62     H    0.91852   0.81998   0.05769   1.000
    H63     H    0.91732   0.82047   0.55690   1.000
    H64     H    0.45547   0.40148   0.22156   1.000
    H65     H    0.45313   0.40273   0.72219   1.000
    H66     H    0.45546   0.90149   0.22156   1.000
    H67     H    0.45313   0.90273   0.72219   1.000
    H68     H    0.95548   0.40148   0.22150   1.000
    H69     H    0.95315   0.40272   0.72210   1.000
    H70     H    0.95548   0.90149   0.22156   1.000
    H71     H    0.95314   0.90274   0.72219   1.000
    H72     H    0.15609   0.47825   0.28390   1.000
    H73     H    0.15373   0.47953   0.78458   1.000
    H74     H    0.15609   0.97825   0.28397   1.000
    H75     H    0.15373   0.97954   0.78450   1.000
    H76     H    0.65610   0.47825   0.28396   1.000
    H77     H    0.65374   0.47954   0.78457   1.000
    H78     H    0.65610   0.97826   0.28396   1.000
    H79     H    0.65375   0.97954   0.78457   1.000
    H80     H    0.29206   0.35720   0.36109   1.000
    H81     H    0.29062   0.35774   0.86247   1.000
    H82     H    0.29206   0.85719   0.36110   1.000
    H83     H    0.29061   0.85774   0.86247   1.000
    C84     C    0.91202   0.51231   0.73065   1.000
    C85     C    0.14453   0.18055   0.11760   1.000
    C86     C    0.14317   0.18107   0.61857   1.000
    C87     C    0.14454   0.68055   0.11760   1.000
    H88     H    0.79208   0.35720   0.36109   1.000
    H89     H    0.79061   0.35772   0.86240   1.000
    H90     H    0.79207   0.85719   0.36110   1.000
    H91     H    0.79063   0.85773   0.86248   1.000
    H92     H    0.36079   0.34206   0.46750   1.000
    H93     H    0.36077   0.34203   0.96867   1.000
    H94     H    0.36078   0.84204   0.46759   1.000
    H95     H    0.36076   0.84203   0.96867   1.000
    H96     H    0.86081   0.34206   0.46758   1.000
    H97     H    0.86076   0.34200   0.96869   1.000
    H98     H    0.86079   0.84204   0.46759   1.000
    H99     H    0.86077   0.84201   0.96868   1.000
    H100    H    0.35396   0.48488   0.09073   1.000
    H101    H    0.35308   0.48467   0.59136   1.000
    H102    H    0.35396   0.98488   0.09074   1.000
    H103    H    0.35307   0.98468   0.59136   1.000
    H104    H    0.85397   0.48488   0.09070   1.000
    H105    H    0.85309   0.48467   0.59136   1.000
    H106    H    0.85397   0.98489   0.09073   1.000
    H107    H    0.85309   0.98467   0.59136   1.000
    H108    H    0.50500   0.20305   0.33760   1.000
    H109    H    0.50241   0.20399   0.83724   1.000
    H110    H    0.50501   0.70306   0.33760   1.000
    H111    H    0.50241   0.70400   0.83720   1.000
    H112    H    0.00000   0.20305   0.33760   1.000
    H113    H    0.00000   0.20401   0.83722   1.000
    H114    H    0.00000   0.70307   0.33760   1.000
    H115    H    0.00000   0.70400   0.83723   1.000
    C116    C    0.26290   0.43396   0.06404   1.000
    C117    C    0.26158   0.43443   0.56429   1.000
    C118    C    0.26287   0.93398   0.06405   1.000
    C119    C    0.26155   0.93446   0.56430   1.000
    C120    C    0.76292   0.43396   0.06404   1.000
    H121    H    0.16864   0.39742   0.02420   1.000
    H122    H    0.16717   0.39851   0.52390   1.000
    H123    H    0.16864   0.89743   0.02420   1.000
    H124    H    0.16717   0.89852   0.52394   1.000
    H125    H    0.66866   0.39742   0.02420   1.000
    H126    H    0.66718   0.39851   0.52390   1.000
    H127    H    0.66866   0.89743   0.02419   1.000
    H128    H    0.66719   0.89852   0.52394   1.000
    H129    H    0.08270   0.17952   0.44305   1.000
    H130    H    0.08153   0.18003   0.94225   1.000
    H131    H    0.08270   0.67954   0.44304   1.000
    H132    H    0.08152   0.68001   0.94227   1.000
    H133    H    0.58271   0.17952   0.44305   1.000
    H134    H    0.58154   0.18000   0.94227   1.000
    H135    H    0.58271   0.67953   0.44305   1.000
    H136    H    0.58152   0.68000   0.94227   1.000
    C137    C    0.23845   0.06552   0.43568   1.000
    C138    C    0.23713   0.06599   0.93590   1.000
    C139    C    0.23843   0.56554   0.43569   1.000
    C140    C    0.23710   0.56601   0.93593   1.000
    C141    C    0.73847   0.06552   0.43568   1.000
    C142    C    0.73712   0.06600   0.93593   1.000
    C143    C    0.73846   0.56553   0.43568   1.000
    C144    C    0.73711   0.56601   0.93593   1.000
    C145    C    0.19182   0.00815   0.44890   1.000
    C146    C    0.19133   0.00802   0.94930   1.000
    C147    C    0.19184   0.50814   0.44894   1.000
    C148    C    0.19135   0.50802   0.94929   1.000
    C149    C    0.69184   0.00815   0.44890   1.000
    C150    C    0.69136   0.00802   0.94929   1.000
    C151    C    0.69184   0.50816   0.44894   1.000
    C152    C    0.69137   0.50802   0.94929   1.000
    C153    C    0.29665   0.05673   0.48729   1.000
    C154    C    0.29585   0.05732   0.98717   1.000
    C155    C    0.29668   0.55672   0.48728   1.000
    C156    C    0.29587   0.55732   0.98715   1.000
    C157    C    0.79667   0.05672   0.48729   1.000
    C158    C    0.79587   0.05731   0.98716   1.000
    C159    C    0.79667   0.55674   0.48720   1.000
    C160    C    0.79588   0.55732   0.98715   1.000
    C161    C    0.02709   0.05434   0.26545   1.000
    C162    C    0.02473   0.05563   0.76604   1.000
    C163    C    0.02709   0.55436   0.26544   1.000
    C164    C    0.02474   0.55563   0.76605   1.000
    C165    C    0.52710   0.05435   0.26543   1.000
    C166    C    0.52475   0.05562   0.76600   1.000
    C167    C    0.52711   0.55436   0.26544   1.000
    C168    C    0.52474   0.55564   0.76605   1.000
    C169    C    0.41434   0.01103   0.23004   1.000
    C170    C    0.41200   0.01229   0.73066   1.000
    C171    C    0.41435   0.51103   0.23005   1.000
    C172    C    0.41199   0.51231   0.73065   1.000
    C173    C    0.91436   0.01102   0.23005   1.000
    C174    C    0.91201   0.01230   0.73065   1.000
    C175    C    0.91436   0.51103   0.23000   1.000
    C176    C    0.14316   0.68107   0.61858   1.000
    C177    C    0.64456   0.18056   0.11767   1.000
    C178    C    0.64318   0.18108   0.61857   1.000
    C179    C    0.64455   0.68057   0.11760   1.000
    C180    C    0.64318   0.68107   0.61858   1.000
    C181    C    0.10444   0.19052   0.05783   1.000
    C182    C    0.10389   0.19076   0.55855   1.000
    C183    C    0.10445   0.69053   0.05783   1.000
    C184    C    0.10388   0.69075   0.55856   1.000
    C185    C    0.60447   0.19054   0.05782   1.000
    C186    C    0.60390   0.19076   0.55855   1.000
    C187    C    0.60446   0.69054   0.05782   1.000
    C188    C    0.60390   0.69075   0.55856   1.000
    C189    C    0.02181   0.24253   0.03264   1.000
    C190    C    0.02136   0.24271   0.53275   1.000
    C191    C    0.02181   0.74253   0.03264   1.000
    C192    C    0.02135   0.74272   0.53275   1.000
    C193    C    0.52183   0.24253   0.03264   1.000
    C194    C    0.52137   0.24272   0.53274   1.000
    C195    C    0.52182   0.74253   0.03264   1.000
    C196    C    0.52137   0.74271   0.53275   1.000
    C197    C    0.48279   0.27970   0.07242   1.000
    C198    C    0.48158   0.28017   0.57213   1.000
    C199    C    0.48278   0.77970   0.07242   1.000
    C200    C    0.48158   0.78017   0.57213   1.000
    C201    C    0.98281   0.27972   0.07241   1.000
    C202    C    0.98160   0.28016   0.57213   1.000
    C203    C    0.98281   0.77971   0.07242   1.000
    C204    C    0.98159   0.78018   0.57213   1.000
    C205    C    0.02671   0.26671   0.13197   1.000
    C206    C    0.02472   0.26745   0.63191   1.000
    C207    C    0.02671   0.76671   0.13198   1.000
    C208    C    0.02471   0.76747   0.63191   1.000
    C209    C    0.52672   0.26670   0.13198   1.000
    C210    C    0.52473   0.26745   0.63191   1.000
    C211    C    0.52672   0.76670   0.13198   1.000
    C212    C    0.52473   0.76746   0.63191   1.000
    C213    C    0.43965   0.06667   0.24562   1.000
    C214    C    0.43730   0.06792   0.74628   1.000
    C215    C    0.43966   0.56668   0.24562   1.000
    C216    C    0.43729   0.56793   0.74628   1.000
    C217    C    0.93967   0.06668   0.24561   1.000
    C218    C    0.93730   0.06792   0.74629   1.000
    C219    C    0.93967   0.56668   0.24562   1.000
    C220    C    0.93731   0.56793   0.74628   1.000
    C221    C    0.76157   0.43445   0.56400   1.000
    C222    C    0.76290   0.93397   0.06404   1.000
    C223    C    0.76157   0.93446   0.56430   1.000
    C224    C    0.30865   0.49195   0.05068   1.000
    C225    C    0.30817   0.49183   0.55103   1.000
    C226    C    0.30867   0.99194   0.05068   1.000
    C227    C    0.30818   0.99183   0.55103   1.000
    C228    C    0.80866   0.49196   0.05068   1.000
    C229    C    0.80819   0.49182   0.55103   1.000
    C230    C    0.80867   0.99196   0.05068   1.000
    C231    C    0.80820   0.99182   0.55103   1.000
    C232    C    0.20413   0.44266   0.01282   1.000
    C233    C    0.20333   0.44325   0.51269   1.000
    C234    C    0.20416   0.94265   0.01281   1.000
    C235    C    0.20334   0.94325   0.51260   1.000
    C236    C    0.70415   0.44266   0.01282   1.000
    C237    C    0.70336   0.44324   0.51269   1.000
    C238    C    0.70416   0.94266   0.01281   1.000
    C239    C    0.70337   0.94325   0.51268   1.000
    C240    C    0.47526   0.44435   0.23390   1.000
    C241    C    0.47291   0.44561   0.73453   1.000
    C242    C    0.47525   0.94436   0.23392   1.000
    C243    C    0.47292   0.94563   0.73453   1.000
    C244    C    0.97527   0.44435   0.23391   1.000
    C245    C    0.97293   0.44561   0.73453   1.000
    C246    C    0.97527   0.94436   0.23391   1.000
    C247    C    0.97292   0.94562   0.73453   1.000
    C248    C    0.08800   0.48766   0.26931   1.000
    C249    C    0.08565   0.48895   0.76992   1.000
    C250    C    0.08801   0.98768   0.26931   1.000
    C251    C    0.08564   0.98896   0.76993   1.000
    C252    C    0.58802   0.48766   0.26931   1.000
    C253    C    0.58566   0.48895   0.76992   1.000
    C254    C    0.58801   0.98767   0.26931   1.000
    C255    C    0.58567   0.98896   0.76991   1.000
    C256    C    0.35683   0.31892   0.38130   1.000
    C257    C    0.35547   0.31940   0.88230   1.000
    C258    C    0.35683   0.81892   0.38139   1.000
    C259    C    0.35547   0.81941   0.88231   1.000
    C260    C    0.85685   0.31892   0.38139   1.000
    C261    C    0.85547   0.31939   0.88231   1.000
    C262    C    0.85684   0.81892   0.38139   1.000
    C263    C    0.85548   0.81940   0.88231   1.000
    C264    C    0.39612   0.30924   0.44140   1.000
    C265    C    0.39557   0.30943   0.94210   1.000
    C266    C    0.39612   0.80924   0.44141   1.000
    C267    C    0.39556   0.80943   0.94215   1.000
    C268    C    0.89614   0.30924   0.44140   1.000
    C269    C    0.89556   0.30941   0.94215   1.000
    C270    C    0.89612   0.80924   0.44141   1.000
    C271    C    0.89557   0.80942   0.94215   1.000
    C272    C    0.47865   0.25728   0.46721   1.000
    C273    C    0.47821   0.25743   0.96733   1.000
    C274    C    0.47865   0.75728   0.46722   1.000
    C275    C    0.47820   0.75743   0.96733   1.000
    C276    C    0.97867   0.25728   0.46722   1.000
    C277    C    0.97821   0.25743   0.96733   1.000
    C278    C    0.97866   0.75728   0.46722   1.000
    C279    C    0.97821   0.75743   0.96734   1.000
    C280    C    0.01842   0.21981   0.42784   1.000
    C281    C    0.01723   0.22029   0.92754   1.000
    C282    C    0.01842   0.71983   0.42780   1.000
    C283    C    0.01723   0.72027   0.92755   1.000
    C284    C    0.51843   0.21982   0.42783   1.000
    C285    C    0.51724   0.22027   0.92755   1.000
    C286    C    0.51843   0.71982   0.42784   1.000
    C287    C    0.51723   0.72027   0.92755   1.000
    C288    C    0.47528   0.23253   0.36806   1.000
    C289    C    0.47331   0.23326   0.86799   1.000
    C290    C    0.47528   0.73253   0.36806   1.000
    C291    C    0.47330   0.73327   0.86799   1.000
    C292    C    0.97530   0.23252   0.36806   1.000
    C293    C    0.97332   0.23328   0.86798   1.000
    C294    C    0.97529   0.73254   0.36800   1.000
    C295    C    0.97332   0.73327   0.86799   1.000
    C296    C    0.06270   0.43205   0.25369   1.000
    C297    C    0.06035   0.43329   0.75435   1.000
    C298    C    0.06270   0.93205   0.25369   1.000
    C299    C    0.06034   0.93331   0.75434   1.000
    C300    C    0.56271   0.43205   0.25369   1.000
    C301    C    0.56036   0.43330   0.75435   1.000
    C302    C    0.56271   0.93206   0.25368   1.000
    C303    C    0.56036   0.93330   0.75436   1.000
    N304    N    0.10716   0.21864   0.15415   1.000
    N305    N    0.10511   0.21941   0.65468   1.000
    N306    N    0.10717   0.71864   0.15416   1.000
    N307    N    0.10510   0.71942   0.65468   1.000
    N308    N    0.60719   0.21864   0.15415   1.000
    N309    N    0.60511   0.21942   0.65467   1.000
    N310    N    0.60718   0.71864   0.15415   1.000
    N311    N    0.60512   0.71942   0.65468   1.000
    N312    N    0.39489   0.28057   0.34529   1.000
    N313    N    0.39284   0.28132   0.84582   1.000
    N314    N    0.39490   0.78057   0.34529   1.000
    N315    N    0.39284   0.78133   0.84582   1.000
    N316    N    0.89491   0.28057   0.34529   1.000
    N317    N    0.89285   0.28133   0.84582   1.000
    N318    N    0.89491   0.78057   0.34529   1.000
    N319    N    0.89286   0.78133   0.84582   1.000
loop_
    _geom_bond_atom_site_label_1
    _geom_bond_atom_site_label_2
    _geom_bond_distance
    _geom_bond_site_symmetry_2
    _ccdc_geom_bond_type
    C234   H123      1.08943      .   S
    C234   C118      1.40474      .   S
    C234   C146      1.39255  1_564   S
    C238   H127      1.08942      .   S
    C238   C222      1.40477      .   S
    C238   C150      1.39256  1_564   S
    C232   H121      1.08941      .   S
    C232   C116      1.40474      .   S
    C232   C148      1.39277  1_554   S
    C236   H125      1.08941      .   S
    C236   C120      1.40475      .   S
    C236   C152      1.39277  1_554   S
    H24    C181      1.08833      .   S
    H28    C185      1.08803      .   S
    H30    C187      1.08803      .   S
    H26    C183      1.08812      .   S
    C195   C187      1.40656      .   S
    C195   C199      1.40556      .   S
    C195   C275      1.48488  1_554   S
    C193   C185      1.40656      .   S
    C193   C197      1.40557      .   S
    C193   C273      1.48488  1_554   S
    C189   C181      1.40657      .   S
    C189   C201      1.40542  1_455   S
    C189   C277      1.48467  1_454   S
    C191   C183      1.40658      .   S
    C191   C203      1.40555  1_455   S
    C191   C279      1.48447  1_454   S
    C224   C116      1.40329      .   S
    C224   H100      1.08967      .   S
    C224   C156      1.39277  1_554   S
    C226   C118      1.40331      .   S
    C226   H102      1.08971      .   S
    C226   C154      1.39256  1_564   S
    C228   C120      1.40329      .   S
    C228   H104      1.08916      .   S
    C228   C160      1.39276  1_554   S
    C230   C222      1.40331      .   S
    C230   H106      1.08961      .   S
    C230   C158      1.39255  1_564   S
    H60    C201      1.08731      .   S
    H62    C203      1.08730      .   S
    H58    C199      1.08731      .   S
    H56    C197      1.08730      .   S
    C185   C177      1.38698      .   S
    C187   C179      1.38564      .   S
    C183   C87       1.38544      .   S
    C181   C85       1.38543      .   S
    C201   C205      1.38845  1_655   S
    C197   C209      1.38868      .   S
    C199   C211      1.38873      .   S
    C203   C207      1.38847  1_655   S
    C179   H22       1.08966      .   S
    C179   N310      1.35113      .   S
    C87    H18       1.08968      .   S
    C87    N306      1.35142      .   S
    C85    H16       1.08966      .   S
    C85    N304      1.35129      .   S
    C177   H20       1.08946      .   S
    C177   N308      1.34987      .   S
    C205   N304      1.34906      .   S
    C205   H40       1.08871  1_455   S
    C211   N310      1.34906      .   S
    C211   H46       1.08860      .   S
    C209   N308      1.34907      .   S
    C209   H44       1.08859      .   S
    C207   N306      1.34908      .   S
    C207   H42       1.08867  1_455   S
    H8     C169      1.08904      .   S
    H10    C171      1.08906      .   S
    H12    C173      1.08902      .   S
    H14    C175      1.08879      .   S
    H68    C244      1.08903      .   S
    H70    C246      1.08833      .   S
    H66    C242      1.08833      .   S
    H64    C240      1.08812      .   S
    C175   C244      1.39085      .   S
    C175   C219      1.40444      .   S
    C169   C242      1.39088  1_545   S
    C169   C213      1.40381      .   S
    C173   C246      1.39087  1_545   S
    C173   C217      1.40387      .   S
    C171   C240      1.39129      .   S
    C171   C215      1.40382      .   S
    C240   C300      1.40344      .   S
    C246   C298      1.40291  1_655   S
    C244   C296      1.40295  1_655   S
    C242   C302      1.40336      .   S
    C217   C161      1.40303  1_655   S
    C213   C165      1.40344      .   S
    C219   C163      1.40297  1_655   S
    C215   C167      1.40341      .   S
    C302   C254      1.40378      .   S
    C296   C248      1.40379      .   S
    C300   C252      1.40379      .   S
    C298   C250      1.40391      .   S
    C165   C254      1.39109  1_545   S
    C165   H4        1.08844      .   S
    C167   C252      1.39134      .   S
    C167   H6        1.08849      .   S
    C163   C248      1.39134      .   S
    C163   H2        1.08848      .   S
    C161   C250      1.39108  1_545   S
    C161   H0        1.08844      .   S
    C252   H76       1.08908      .   S
    C248   H72       1.08875      .   S
    C250   H74       1.08907      .   S
    C254   H78       1.08910      .   S
    H108   C288      1.08889      .   S
    H114   C294      1.06658  1_455   S
    H112   C292      1.06775  1_455   S
    H110   C290      1.08884      .   S
    N318   C294      1.34901      .   S
    N318   C262      1.34999      .   S
    N316   C292      1.34912      .   S
    N316   C260      1.35010      .   S
    N314   C290      1.34913      .   S
    N314   C258      1.35000      .   S
    N312   C288      1.34912      .   S
    N312   C256      1.34847      .   S
    H88    C260      1.08945      .   S
    H80    C256      1.08918      .   S
    H90    C262      1.08943      .   S
    H82    C258      1.08944      .   S
    C294   C282      1.38905  1_655   S
    C290   C286      1.38888      .   S
    C292   C280      1.38869  1_655   S
    C288   C284      1.38874      .   S
    C256   C264      1.38849      .   S
    C260   C268      1.38669      .   S
    C262   C270      1.38685      .   S
    C258   C266      1.38686      .   S
    H34    C147      1.08967      .   S
    H32    C145      1.08891      .   S
    H38    C151      1.08961      .   S
    H36    C149      1.08889      .   S
    C282   H131      1.08741      .   S
    C282   C278      1.40637  1_455   S
    C284   H133      1.08740      .   S
    C284   C272      1.40586      .   S
    C286   H135      1.08740      .   S
    C286   C274      1.40580      .   S
    C280   H129      1.08739      .   S
    C280   C276      1.40574  1_455   S
    C143   C151      1.40345      .   S
    C143   C159      1.40325      .   S
    C137   C145      1.40359      .   S
    C137   C153      1.40470      .   S
    C141   C149      1.40358      .   S
    C141   C157      1.40469      .   S
    C139   C147      1.40345      .   S
    C139   C155      1.40464      .   S
    C268   C276      1.40649      .   S
    C268   H96       1.08825      .   S
    C264   C272      1.40646      .   S
    C264   H92       1.08688      .   S
    C266   C274      1.40647      .   S
    C266   H94       1.08816      .   S
    C270   C278      1.40649      .   S
    C270   H98       1.08817      .   S
    C149   C239      1.39328  1_545   S
    C145   C235      1.39219  1_545   S
    C151   C237      1.39298      .   S
    C147   C233      1.39285      .   S
    C272   C194      1.48505      .   S
    C274   C196      1.48506      .   S
    C276   C190      1.48485  1_655   S
    C278   C192      1.48485  1_655   S
    H52    C157      1.08947      .   S
    H48    C153      1.08944      .   S
    H50    C155      1.08945      .   S
    H54    C159      1.08972      .   S
    C159   C229      1.39405      .   S
    C155   C225      1.39284      .   S
    C153   C227      1.39271  1_545   S
    C157   C231      1.39274  1_545   S
    C235   H124      1.08921      .   S
    C235   C119      1.40622      .   S
    C239   H128      1.08944      .   S
    C239   C223      1.40487      .   S
    C233   H122      1.08957      .   S
    C233   C117      1.40481      .   S
    C237   H126      1.08960      .   S
    C237   C221      1.39973      .   S
    H27    C184      1.08957      .   S
    H25    C182      1.08811      .   S
    H29    C186      1.08814      .   S
    H31    C188      1.08818      .   S
    C194   C186      1.40649      .   S
    C194   C198      1.40596      .   S
    C196   C188      1.40648      .   S
    C196   C200      1.40581      .   S
    C190   C182      1.40646      .   S
    C190   C202      1.40559  1_455   S
    C192   C184      1.40646      .   S
    C192   C204      1.40570  1_455   S
    C227   C119      1.40342      .   S
    C227   H103      1.08957      .   S
    C229   C221      1.40441      .   S
    C229   H105      1.08960      .   S
    C225   C117      1.40342      .   S
    C225   H101      1.08967      .   S
    C231   C223      1.40341      .   S
    C231   H107      1.08955      .   S
    H63    C204      1.08740      .   S
    H61    C202      1.08740      .   S
    H59    C200      1.08740      .   S
    H57    C198      1.08739      .   S
    C186   C178      1.38680      .   S
    C182   C86       1.38682      .   S
    C188   C180      1.38686      .   S
    C184   C176      1.38687      .   S
    C198   C210      1.38884      .   S
    C200   C212      1.38889      .   S
    C202   C206      1.38865  1_655   S
    C204   C208      1.38866  1_655   S
    C86    H17       1.08926      .   S
    C86    N305      1.35012      .   S
    C178   H21       1.08943      .   S
    C178   N309      1.34996      .   S
    C176   H19       1.08942      .   S
    C176   N307      1.35005      .   S
    C180   H23       1.08942      .   S
    C180   N311      1.35003      .   S
    C212   N311      1.34911      .   S
    C212   H47       1.08885      .   S
    C208   N307      1.34912      .   S
    C208   H43       1.08869  1_455   S
    C206   N305      1.34911      .   S
    C206   H41       1.08880  1_455   S
    C210   N309      1.34910      .   S
    C210   H45       1.08882      .   S
    H11    C172      1.08909      .   S
    H13    C174      1.08910      .   S
    H15    C84       1.08908      .   S
    H9     C170      1.08904      .   S
    H69    C245      1.08948      .   S
    H71    C247      1.08830      .   S
    H67    C243      1.08847      .   S
    H65    C241      1.08835      .   S
    C84    C245      1.39133      .   S
    C84    C220      1.40388      .   S
    C174   C247      1.39113  1_545   S
    C174   C218      1.40388      .   S
    C172   C241      1.39133      .   S
    C172   C216      1.40390      .   S
    C170   C243      1.39104  1_545   S
    C170   C214      1.40394      .   S
    C247   C299      1.40302  1_655   S
    C245   C297      1.40301  1_655   S
    C243   C303      1.40343      .   S
    C241   C301      1.40345      .   S
    C214   C166      1.40303      .   S
    C216   C168      1.40336      .   S
    C220   C164      1.40293  1_655   S
    C218   C162      1.40288  1_655   S
    C299   C251      1.40393      .   S
    C301   C253      1.40379      .   S
    C297   C249      1.40380      .   S
    C303   C255      1.40378      .   S
    C166   C255      1.39055  1_545   S
    C166   H5        1.08904      .   S
    C162   C251      1.39086  1_545   S
    C162   H1        1.08834      .   S
    C168   C253      1.39120      .   S
    C168   H7        1.08828      .   S
    C164   C249      1.39121      .   S
    C164   H3        1.08823      .   S
    C255   H79       1.08904      .   S
    C249   H73       1.08907      .   S
    C253   H77       1.08902      .   S
    C251   H75       1.08861      .   S
    H111   C291      1.08931      .   S
    H113   C293      1.07805  1_455   S
    H115   C295      1.07810  1_455   S
    H109   C289      1.08859      .   S
    N317   C293      1.34906      .   S
    N317   C261      1.34991      .   S
    N315   C291      1.34906      .   S
    N315   C259      1.35003      .   S
    N319   C295      1.34907      .   S
    N319   C263      1.34996      .   S
    N313   C289      1.34907      .   S
    N313   C257      1.34989      .   S
    H89    C261      1.08969      .   S
    H83    C259      1.08949      .   S
    H81    C257      1.08945      .   S
    H91    C263      1.08947      .   S
    C293   C281      1.38856  1_655   S
    C289   C285      1.38876      .   S
    C291   C287      1.38873      .   S
    C295   C283      1.38852  1_655   S
    C257   C265      1.38608      .   S
    C259   C267      1.38683      .   S
    C261   C269      1.38684      .   S
    C263   C271      1.38683      .   S
    H39    C152      1.08966      .   S
    H37    C150      1.08961      .   S
    H35    C148      1.08965      .   S
    H33    C146      1.08971      .   S
    C281   H130      1.08731      .   S
    C281   C277      1.40543  1_455   S
    C287   H136      1.08730      .   S
    C287   C275      1.40554      .   S
    C285   H134      1.08732      .   S
    C285   C273      1.40556      .   S
    C283   H132      1.08731      .   S
    C283   C279      1.40551  1_455   S
    C138   C146      1.40321      .   S
    C138   C154      1.40525      .   S
    C140   C148      1.40329      .   S
    C140   C156      1.40475      .   S
    C142   C150      1.40330      .   S
    C142   C158      1.40477      .   S
    C144   C152      1.40328      .   S
    C144   C160      1.40474      .   S
    C265   C273      1.40666      .   S
    C265   H93       1.08889      .   S
    C271   C279      1.40659      .   S
    C271   H99       1.08812      .   S
    C269   C277      1.40659      .   S
    C269   H97       1.08822      .   S
    C267   C275      1.40657      .   S
    C267   H95       1.08800      .   S
    H51    C156      1.08919      .   S
    H55    C160      1.08923      .   S
    H49    C154      1.08941      .   S
    H53    C158      1.08942      .   S
