# CIF file generated by openbabel 2.4.90, see http://openbabel.sf.net
data_I
_chemical_name_common ''
_cell_length_a 15.945
_cell_length_b 19.362
_cell_length_c 21.91
_cell_angle_alpha 64.228
_cell_angle_beta 88.743
_cell_angle_gamma 76.382
_space_group_name_H-M_alt 'P 1'
_space_group_name_Hall 'P 1'
loop_
    _symmetry_equiv_pos_as_xyz
    x,y,z
loop_
    _atom_site_label
    _atom_site_type_symbol
    _atom_site_fract_x
    _atom_site_fract_y
    _atom_site_fract_z
    _atom_site_occupancy
    Zr0     Zr   0.18441   0.22544   0.22480   1.000
    Zr1     Zr   0.18174   0.22657   0.72550   1.000
    Zr2     Zr   0.18442   0.72545   0.22481   1.000
    Zr3     Zr   0.18173   0.72658   0.72550   1.000
    Zr4     Zr   0.68443   0.22544   0.22481   1.000
    Zr5     Zr   0.68174   0.22658   0.72550   1.000
    Zr6     Zr   0.68443   0.72545   0.22480   1.000
    Zr7     Zr   0.68175   0.72658   0.72550   1.000
    Zr8     Zr   0.31826   0.27340   0.27448   1.000
    Zr9     Zr   0.31559   0.27453   0.77517   1.000
    Zr10    Zr   0.31826   0.77340   0.27448   1.000
    Zr11    Zr   0.31558   0.77454   0.77510   1.000
    Zr12    Zr   0.81828   0.27340   0.27448   1.000
    Zr13    Zr   0.81560   0.27453   0.77517   1.000
    Zr14    Zr   0.81827   0.77340   0.27448   1.000
    Zr15    Zr   0.81561   0.77453   0.77517   1.000
    Zr16    Zr   0.22872   0.13477   0.36643   1.000
    Zr17    Zr   0.22624   0.13569   0.86688   1.000
    Zr18    Zr   0.22874   0.63476   0.36643   1.000
    Zr19    Zr   0.22626   0.63569   0.86687   1.000
    Zr20    Zr   0.72874   0.13477   0.36643   1.000
    Zr21    Zr   0.72626   0.13568   0.86688   1.000
    Zr22    Zr   0.72874   0.63478   0.36643   1.000
    Zr23    Zr   0.72628   0.63568   0.86687   1.000
    Zr24    Zr   0.37339   0.13777   0.24243   1.000
    Zr25    Zr   0.37113   0.13898   0.74323   1.000
    Zr26    Zr   0.37339   0.63777   0.24244   1.000
    Zr27    Zr   0.37111   0.63900   0.74322   1.000
    Zr28    Zr   0.87341   0.13776   0.24245   1.000
    Zr29    Zr   0.87113   0.13899   0.74320   1.000
    Zr30    Zr   0.87340   0.63777   0.24244   1.000
    Zr31    Zr   0.87114   0.63899   0.74322   1.000
    Zr32    Zr   0.27374   0.36429   0.13310   1.000
    Zr33    Zr   0.27127   0.36521   0.63355   1.000
    Zr34    Zr   0.27376   0.86428   0.13309   1.000
    Zr35    Zr   0.27128   0.86521   0.63354   1.000
    Zr36    Zr   0.77375   0.36429   0.13310   1.000
    Zr37    Zr   0.77129   0.36521   0.63354   1.000
    Zr38    Zr   0.77376   0.86429   0.13310   1.000
    Zr39    Zr   0.77130   0.86521   0.63354   1.000
    Zr40    Zr   0.12886   0.36098   0.25674   1.000
    Zr41    Zr   0.12661   0.36220   0.75754   1.000
    Zr42    Zr   0.12887   0.86099   0.25674   1.000
    Zr43    Zr   0.12660   0.86221   0.75754   1.000
    Zr44    Zr   0.62889   0.36098   0.25674   1.000
    Zr45    Zr   0.62662   0.36220   0.75754   1.000
    Zr46    Zr   0.62887   0.86098   0.25675   1.000
    Zr47    Zr   0.62663   0.86221   0.75753   1.000
    Zr48    Zr   0.17303   0.14167   0.32169   1.000
    Zr49    Zr   0.17053   0.14235   0.82226   1.000
    Zr50    Zr   0.17303   0.64168   0.32169   1.000
    Zr51    Zr   0.17052   0.64237   0.82226   1.000
    Zr52    Zr   0.67304   0.14167   0.32169   1.000
    Zr53    Zr   0.67053   0.14236   0.82220   1.000
    Zr54    Zr   0.67304   0.64168   0.32160   1.000
    Zr55    Zr   0.67054   0.64237   0.82220   1.000
    Zr56    Zr   0.27758   0.18082   0.35756   1.000
    Zr57    Zr   0.27432   0.18237   0.85803   1.000
    Zr58    Zr   0.27758   0.68083   0.35756   1.000
    Zr59    Zr   0.27431   0.68238   0.85803   1.000
    Zr60    Zr   0.77759   0.18082   0.35756   1.000
    Zr61    Zr   0.77433   0.18238   0.85803   1.000
    Zr62    Zr   0.77759   0.68083   0.35756   1.000
    Zr63    Zr   0.77433   0.68238   0.85803   1.000
    Zr64    Zr   0.29521   0.14505   0.22414   1.000
    Zr65    Zr   0.29291   0.14645   0.72480   1.000
    Zr66    Zr   0.29522   0.64505   0.22414   1.000
    Zr67    Zr   0.29289   0.64645   0.72488   1.000
    Zr68    Zr   0.79523   0.14505   0.22414   1.000
    Zr69    Zr   0.79291   0.14645   0.72488   1.000
    Zr70    Zr   0.79523   0.64506   0.22414   1.000
    Zr71    Zr   0.79292   0.64645   0.72488   1.000
    Zr72    Zr   0.40005   0.18508   0.25890   1.000
    Zr73    Zr   0.39790   0.18610   0.75988   1.000
    Zr74    Zr   0.40005   0.68509   0.25890   1.000
    Zr75    Zr   0.39788   0.68611   0.75988   1.000
    Zr76    Zr   0.90007   0.18508   0.25890   1.000
    Zr77    Zr   0.89790   0.18610   0.75988   1.000
    Zr78    Zr   0.90007   0.68509   0.25890   1.000
    Zr79    Zr   0.89791   0.68611   0.75988   1.000
    Zr80    Zr   0.32947   0.35761   0.17772   1.000
    Zr81    Zr   0.32698   0.35830   0.67829   1.000
    Zr82    Zr   0.32947   0.85761   0.17772   1.000
    Zr83    Zr   0.32697   0.85832   0.67829   1.000
    Zr84    Zr   0.82949   0.35761   0.17772   1.000
    Zr85    Zr   0.82699   0.35831   0.67829   1.000
    Zr86    Zr   0.82949   0.85762   0.17772   1.000
    Zr87    Zr   0.82699   0.85831   0.67829   1.000
    Zr88    Zr   0.22568   0.31759   0.14194   1.000
    Zr89    Zr   0.22244   0.31914   0.64242   1.000
    Zr90    Zr   0.22568   0.81760   0.14194   1.000
    Zr91    Zr   0.22243   0.81915   0.64242   1.000
    Zr92    Zr   0.72570   0.31759   0.14194   1.000
    Zr93    Zr   0.72245   0.31914   0.64242   1.000
    Zr94    Zr   0.72569   0.81760   0.14194   1.000
    Zr95    Zr   0.72245   0.81915   0.64242   1.000
    Zr96    Zr   0.20708   0.35352   0.27509   1.000
    Zr97    Zr   0.20479   0.35492   0.77584   1.000
    Zr98    Zr   0.20709   0.85352   0.27509   1.000
    Zr99    Zr   0.20478   0.85493   0.77580   1.000
    Zr100   Zr   0.70710   0.35352   0.27509   1.000
    Zr101   Zr   0.70480   0.35492   0.77580   1.000
    Zr102   Zr   0.70710   0.85352   0.27500   1.000
    Zr103   Zr   0.70480   0.85492   0.77584   1.000
    Zr104   Zr   0.10209   0.31386   0.24000   1.000
    Zr105   Zr   0.09995   0.31489   0.74107   1.000
    Zr106   Zr   0.10210   0.81387   0.24009   1.000
    Zr107   Zr   0.09995   0.81490   0.74107   1.000
    Zr108   Zr   0.60211   0.31386   0.24009   1.000
    Zr109   Zr   0.59996   0.31489   0.74107   1.000
    Zr110   Zr   0.60210   0.81387   0.24008   1.000
    Zr111   Zr   0.59997   0.81490   0.74107   1.000
    O112    O    0.24972   0.84094   0.13751   1.000
    O113    O    0.30162   0.86095   0.15541   1.000
    O114    O    0.24971   0.34094   0.13752   1.000
    O115    O    0.30161   0.36095   0.15541   1.000
    O116    O    0.74973   0.34094   0.13752   1.000
    O117    O    0.80162   0.36095   0.15541   1.000
    O118    O    0.74973   0.84094   0.13752   1.000
    O119    O    0.80162   0.86095   0.15541   1.000
    O120    O    0.20505   0.77152   0.18338   1.000
    O121    O    0.70507   0.27151   0.18338   1.000
    O122    O    0.20505   0.27152   0.18337   1.000
    O123    O    0.70506   0.77152   0.18337   1.000
    O124    O    0.32387   0.31550   0.22610   1.000
    O125    O    0.82389   0.31550   0.22610   1.000
    O126    O    0.32387   0.81551   0.22610   1.000
    O127    O    0.82388   0.81551   0.22610   1.000
    O128    O    0.73983   0.68525   0.22447   1.000
    O129    O    0.83432   0.64141   0.23329   1.000
    O130    O    0.73983   0.18524   0.22448   1.000
    O131    O    0.83432   0.14141   0.23330   1.000
    O132    O    0.23981   0.18524   0.22447   1.000
    O133    O    0.33430   0.14141   0.23329   1.000
    O134    O    0.23982   0.68525   0.22448   1.000
    O135    O    0.33430   0.64141   0.23329   1.000
    O136    O    0.64326   0.76966   0.23244   1.000
    O137    O    0.67873   0.68356   0.27320   1.000
    O138    O    0.14325   0.26965   0.23240   1.000
    O139    O    0.17872   0.18356   0.27324   1.000
    O140    O    0.64327   0.26965   0.23245   1.000
    O141    O    0.67874   0.18355   0.27325   1.000
    O142    O    0.14326   0.76966   0.23245   1.000
    O143    O    0.17872   0.68356   0.27325   1.000
    O144    O    0.11548   0.33742   0.24837   1.000
    O145    O    0.61549   0.83743   0.24841   1.000
    O146    O    0.61550   0.33742   0.24841   1.000
    O147    O    0.11548   0.83743   0.24841   1.000
    O148    O    0.38672   0.16142   0.25066   1.000
    O149    O    0.38672   0.66143   0.25067   1.000
    O150    O    0.88674   0.66143   0.25067   1.000
    O151    O    0.88674   0.16142   0.25067   1.000
    O152    O    0.66799   0.35725   0.26592   1.000
    O153    O    0.16797   0.35725   0.26592   1.000
    O154    O    0.16798   0.85726   0.26592   1.000
    O155    O    0.66798   0.85725   0.26588   1.000
    O156    O    0.35916   0.72924   0.26669   1.000
    O157    O    0.85918   0.22924   0.26669   1.000
    O158    O    0.85917   0.72925   0.26669   1.000
    O159    O    0.35916   0.22924   0.26669   1.000
    O160    O    0.26268   0.81346   0.27478   1.000
    O161    O    0.29792   0.72712   0.31602   1.000
    O162    O    0.76268   0.81346   0.27474   1.000
    O163    O    0.79793   0.72712   0.31602   1.000
    O164    O    0.76269   0.31346   0.27478   1.000
    O165    O    0.79794   0.22711   0.31602   1.000
    O166    O    0.26267   0.31346   0.27478   1.000
    O167    O    0.29792   0.22711   0.31602   1.000
    O168    O    0.70089   0.63823   0.34402   1.000
    O169    O    0.20087   0.13822   0.34406   1.000
    O170    O    0.20088   0.63822   0.34406   1.000
    O171    O    0.70089   0.13822   0.34406   1.000
    O172    O    0.25315   0.15779   0.36200   1.000
    O173    O    0.25316   0.65780   0.36200   1.000
    O174    O    0.75317   0.15779   0.36200   1.000
    O175    O    0.75316   0.65780   0.36200   1.000
    O176    O    0.24686   0.84218   0.63798   1.000
    O177    O    0.29913   0.86176   0.65591   1.000
    O178    O    0.74688   0.84218   0.63798   1.000
    O179    O    0.79915   0.86176   0.65591   1.000
    O180    O    0.74687   0.34217   0.63798   1.000
    O181    O    0.79914   0.36176   0.65591   1.000
    O182    O    0.24685   0.34217   0.63798   1.000
    O183    O    0.29912   0.36175   0.65592   1.000
    O184    O    0.20209   0.27286   0.68396   1.000
    O185    O    0.70210   0.77287   0.68396   1.000
    O186    O    0.70210   0.27286   0.68396   1.000
    O187    O    0.20208   0.77287   0.68396   1.000
    O188    O    0.82129   0.31642   0.72673   1.000
    O189    O    0.82130   0.81642   0.72673   1.000
    O190    O    0.32128   0.81643   0.72669   1.000
    O191    O    0.32129   0.31641   0.72673   1.000
    O192    O    0.23732   0.18651   0.72515   1.000
    O193    O    0.33202   0.14271   0.73401   1.000
    O194    O    0.73734   0.68652   0.72519   1.000
    O195    O    0.83203   0.64272   0.73405   1.000
    O196    O    0.73733   0.18651   0.72519   1.000
    O197    O    0.83202   0.14272   0.73404   1.000
    O198    O    0.23731   0.68652   0.72519   1.000
    O199    O    0.33200   0.64273   0.73405   1.000
    O200    O    0.14085   0.27073   0.73328   1.000
    O201    O    0.17613   0.18446   0.77388   1.000
    O202    O    0.64086   0.77074   0.73328   1.000
    O203    O    0.67614   0.68447   0.77385   1.000
    O204    O    0.64085   0.27073   0.73328   1.000
    O205    O    0.67614   0.18447   0.77385   1.000
    O206    O    0.14084   0.77074   0.73328   1.000
    O207    O    0.17612   0.68448   0.77388   1.000
    O208    O    0.61329   0.33855   0.74930   1.000
    O209    O    0.61330   0.83855   0.74930   1.000
    O210    O    0.11327   0.83855   0.74930   1.000
    O211    O    0.11328   0.33854   0.74930   1.000
    O212    O    0.88452   0.16255   0.75154   1.000
    O213    O    0.88452   0.66255   0.75155   1.000
    O214    O    0.38450   0.66255   0.75155   1.000
    O215    O    0.38451   0.16254   0.75155   1.000
    O216    O    0.66572   0.85857   0.76668   1.000
    O217    O    0.16570   0.35856   0.76669   1.000
    O218    O    0.16569   0.85857   0.76667   1.000
    O219    O    0.66571   0.35856   0.76667   1.000
    O220    O    0.35674   0.23031   0.76753   1.000
    O221    O    0.35673   0.73032   0.76749   1.000
    O222    O    0.85675   0.23032   0.76753   1.000
    O223    O    0.85676   0.73032   0.76753   1.000
    O224    O    0.26018   0.81473   0.77545   1.000
    O225    O    0.29495   0.72846   0.81657   1.000
    O226    O    0.26019   0.31472   0.77550   1.000
    O227    O    0.29496   0.22845   0.81660   1.000
    O228    O    0.76020   0.31472   0.77549   1.000
    O229    O    0.79496   0.22845   0.81660   1.000
    O230    O    0.76020   0.81473   0.77550   1.000
    O231    O    0.79497   0.72846   0.81660   1.000
    O232    O    0.69841   0.63902   0.84453   1.000
    O233    O    0.69840   0.13902   0.84454   1.000
    O234    O    0.19839   0.63903   0.84457   1.000
    O235    O    0.19838   0.13902   0.84457   1.000
    O236    O    0.75030   0.65903   0.86245   1.000
    O237    O    0.25028   0.15903   0.86245   1.000
    O238    O    0.25029   0.65903   0.86245   1.000
    O239    O    0.75030   0.15903   0.86245   1.000
    O240    O    0.25134   0.24942   0.24964   1.000
    O241    O    0.24866   0.25055   0.75034   1.000
    O242    O    0.25134   0.74943   0.24965   1.000
    O243    O    0.24865   0.75056   0.75030   1.000
    O244    O    0.75136   0.24942   0.24965   1.000
    O245    O    0.74867   0.25055   0.75034   1.000
    O246    O    0.75135   0.74943   0.24964   1.000
    O247    O    0.74868   0.75056   0.75034   1.000
    N248    N    0.25000   0.99999   0.49997   1.000
    O249    O    0.24179   0.05007   0.45051   1.000
    O250    O    0.25821   0.94991   0.54945   1.000
    N251    N    0.50118   0.99936   0.24967   1.000
    O252    O    0.45385   0.05079   0.24685   1.000
    O253    O    0.54849   0.94794   0.25244   1.000
    N254    N    0.99989   0.24998   0.99998   1.000
    O255    O    0.07284   0.23601   0.09472   1.000
    O256    O    0.92706   0.26396   0.90524   1.000
    N257    N    0.00118   0.49936   0.24965   1.000
    O258    O    0.95386   0.55079   0.24684   1.000
    O259    O    0.04848   0.44793   0.25243   1.000
    N260    N    0.99882   0.00062   0.75029   1.000
    O261    O    0.95152   0.05204   0.74752   1.000
    O262    O    0.04615   0.94919   0.75311   1.000
    N263    N    0.50001   0.74999   0.49999   1.000
    O264    O    0.57172   0.73650   0.59504   1.000
    O265    O    0.42829   0.76349   0.40493   1.000
    N266    N    0.50002   0.24998   0.99998   1.000
    O267    O    0.57291   0.23601   0.09473   1.000
    O268    O    0.42712   0.26395   0.90524   1.000
    N269    N    0.99976   0.24999   0.49998   1.000
    O270    O    0.92818   0.26349   0.40493   1.000
    O271    O    0.07159   0.23649   0.59503   1.000
    N272    N    0.99975   0.75000   0.49997   1.000
    O273    O    0.07158   0.73650   0.59503   1.000
    O274    O    0.92817   0.76349   0.40493   1.000
    N275    N    0.50118   0.49936   0.24967   1.000
    O276    O    0.45385   0.55079   0.24685   1.000
    O277    O    0.54849   0.44793   0.25244   1.000
    N278    N    0.75001   0.99999   0.99999   1.000
    O279    O    0.74085   0.05041   0.95070   1.000
    O280    O    0.75917   0.94956   0.04928   1.000
    N281    N    0.50001   0.74999   0.99998   1.000
    O282    O    0.57291   0.73602   0.09473   1.000
    O283    O    0.42711   0.76396   0.90522   1.000
    N284    N    0.99989   0.74998   0.99998   1.000
    O285    O    0.92706   0.76396   0.90524   1.000
    O286    O    0.07284   0.73601   0.09473   1.000
    N287    N    0.75002   0.99999   0.49998   1.000
    O288    O    0.74181   0.05006   0.45052   1.000
    O289    O    0.75823   0.94991   0.54945   1.000
    N290    N    0.25000   0.49998   0.49998   1.000
    O291    O    0.25822   0.44990   0.54945   1.000
    O292    O    0.24179   0.55007   0.45052   1.000
    N293    N    0.49882   0.50062   0.75029   1.000
    O294    O    0.54616   0.44919   0.75312   1.000
    O295    O    0.45151   0.55204   0.74752   1.000
    N296    N    0.75002   0.49999   0.99998   1.000
    O297    O    0.75918   0.44955   0.04927   1.000
    O298    O    0.74085   0.55042   0.95069   1.000
    N299    N    0.75001   0.49999   0.49994   1.000
    O300    O    0.75822   0.44991   0.54936   1.000
    O301    O    0.74180   0.55007   0.45050   1.000
    N302    N    0.49883   0.00062   0.75029   1.000
    O303    O    0.45152   0.05203   0.74752   1.000
    O304    O    0.54617   0.94919   0.75312   1.000
    N305    N    0.25000   0.49998   0.99998   1.000
    O306    O    0.24084   0.55042   0.95069   1.000
    O307    O    0.25916   0.44955   0.04927   1.000
    N308    N    0.99883   0.50062   0.75029   1.000
    O309    O    0.04616   0.44918   0.75312   1.000
    O310    O    0.95153   0.55204   0.74752   1.000
    N311    N    0.00118   0.99936   0.24967   1.000
    O312    O    0.04848   0.94794   0.25244   1.000
    O313    O    0.95386   0.05079   0.24685   1.000
    N314    N    0.25000   0.99998   0.99999   1.000
    O315    O    0.24084   0.05041   0.95069   1.000
    O316    O    0.25916   0.94956   0.04928   1.000
    N317    N    0.50001   0.25000   0.49997   1.000
    O318    O    0.42829   0.26349   0.40493   1.000
    O319    O    0.57172   0.23650   0.59503   1.000
loop_
    _geom_bond_atom_site_label_1
    _geom_bond_atom_site_label_2
    _geom_bond_distance
    _geom_bond_site_symmetry_2
    _ccdc_geom_bond_type
    Zr34   O112      0.63435      .   S
    Zr90   O112      0.63435      .   S
    Zr34   O113      0.63960      .   S
    Zr82   O113      0.63960      .   S
    Zr32   O114      0.63436      .   S
    Zr88   O114      0.63436      .   S
    Zr32   O115      0.63958      .   S
    Zr80   O115      0.63958      .   S
    Zr36   O116      0.63436      .   S
    Zr92   O116      0.63436      .   S
    Zr36   O117      0.63959      .   S
    Zr84   O117      0.63959      .   S
    Zr38   O118      0.63437      .   S
    Zr94   O118      0.63437      .   S
    Zr38   O119      0.63955      .   S
    Zr86   O119      0.63955      .   S
    Zr90   O120      1.07196      .   S
    Zr2    O120      1.07196      .   S
    Zr92   O121      1.07197      .   S
    Zr4    O121      1.07197      .   S
    Zr88   O122      1.07191      .   S
    Zr0    O122      1.07191      .   S
    Zr94   O123      1.07192      .   S
    Zr6    O123      1.07192      .   S
    Zr80   O124      1.03678      .   S
    Zr8    O124      1.03678      .   S
    Zr84   O125      1.03678      .   S
    Zr12   O125      1.03678      .   S
    Zr82   O126      1.03678      .   S
    Zr10   O126      1.03678      .   S
    Zr86   O127      1.03679      .   S
    Zr14   O127      1.03679      .   S
    Zr70   O128      1.03295      .   S
    Zr6    O128      1.03295      .   S
    Zr70   O129      0.63728      .   S
    Zr30   O129      0.63728      .   S
    Zr68   O130      1.03298      .   S
    Zr4    O130      1.03298      .   S
    Zr68   O131      0.63729      .   S
    Zr28   O131      0.63729      .   S
    Zr64   O132      1.03295      .   S
    Zr0    O132      1.03295      .   S
    Zr64   O133      0.63727      .   S
    Zr24   O133      0.63727      .   S
    Zr66   O134      1.03299      .   S
    Zr2    O134      1.03299      .   S
    Zr66   O135      0.63727      .   S
    Zr26   O135      0.63727      .   S
    Zr6    O136      1.02314      .   S
    Zr110  O136      1.02314      .   S
    Zr6    O137      1.03589      .   S
    Zr54   O137      1.03589      .   S
    Zr0    O138      1.02266      .   S
    Zr104  O138      1.02266      .   S
    Zr0    O139      1.03657      .   S
    Zr48   O139      1.03657      .   S
    Zr4    O140      1.02310      .   S
    Zr108  O140      1.02310      .   S
    Zr4    O141      1.03650      .   S
    Zr52   O141      1.03650      .   S
    Zr2    O142      1.02312      .   S
    Zr106  O142      1.02312      .   S
    Zr2    O143      1.03650      .   S
    Zr50   O143      1.03650      .   S
    Zr104  O144      0.63839      .   S
    Zr40   O144      0.63839      .   S
    Zr110  O145      0.63787      .   S
    Zr46   O145      0.63787      .   S
    Zr108  O146      0.63782      .   S
    Zr44   O146      0.63782      .   S
    Zr106  O147      0.63783      .   S
    Zr42   O147      0.63783      .   S
    Zr24   O148      0.63787      .   S
    Zr72   O148      0.63787      .   S
    Zr26   O149      0.63787      .   S
    Zr74   O149      0.63787      .   S
    Zr30   O150      0.63785      .   S
    Zr78   O150      0.63785      .   S
    Zr28   O151      0.63781      .   S
    Zr76   O151      0.63781      .   S
    Zr44   O152      0.63729      .   S
    Zr100  O152      0.63729      .   S
    Zr40   O153      0.63731      .   S
    Zr96   O153      0.63731      .   S
    Zr42   O154      0.63729      .   S
    Zr98   O154      0.63729      .   S
    Zr46   O155      0.63701      .   S
    Zr102  O155      0.63701      .   S
    Zr74   O156      1.02218      .   S
    Zr10   O156      1.02218      .   S
    Zr76   O157      1.02219      .   S
    Zr12   O157      1.02219      .   S
    Zr78   O158      1.02218      .   S
    Zr14   O158      1.02218      .   S
    Zr72   O159      1.02220      .   S
    Zr8    O159      1.02220      .   S
    Zr10   O160      1.03334      .   S
    Zr98   O160      1.03334      .   S
    Zr10   O161      1.07304      .   S
    Zr58   O161      1.07304      .   S
    Zr14   O162      1.03303      .   S
    Zr102  O162      1.03303      .   S
    Zr14   O163      1.07303      .   S
    Zr62   O163      1.07303      .   S
    Zr12   O164      1.03334      .   S
    Zr100  O164      1.03334      .   S
    Zr12   O165      1.07306      .   S
    Zr60   O165      1.07306      .   S
    Zr8    O166      1.03334      .   S
    Zr96   O166      1.03334      .   S
    Zr8    O167      1.07304      .   S
    Zr56   O167      1.07304      .   S
    Zr54   O168      0.64022      .   S
    Zr22   O168      0.64022      .   S
    Zr48   O169      0.63949      .   S
    Zr16   O169      0.63949      .   S
    Zr50   O170      0.63955      .   S
    Zr18   O170      0.63955      .   S
    Zr52   O171      0.63950      .   S
    Zr20   O171      0.63950      .   S
    Zr56   O172      0.63432      .   S
    Zr16   O172      0.63432      .   S
    Zr58   O173      0.63431      .   S
    Zr18   O173      0.63431      .   S
    Zr60   O174      0.63432      .   S
    Zr20   O174      0.63432      .   S
    Zr62   O175      0.63432      .   S
    Zr22   O175      0.63432      .   S
    Zr35   O176      0.63430      .   S
    Zr91   O176      0.63430      .   S
    Zr35   O177      0.63958      .   S
    Zr83   O177      0.63958      .   S
    Zr39   O178      0.63431      .   S
    Zr95   O178      0.63431      .   S
    Zr39   O179      0.63958      .   S
    Zr87   O179      0.63958      .   S
    Zr37   O180      0.63430      .   S
    Zr93   O180      0.63430      .   S
    Zr37   O181      0.63960      .   S
    Zr85   O181      0.63960      .   S
    Zr33   O182      0.63431      .   S
    Zr89   O182      0.63431      .   S
    Zr33   O183      0.63955      .   S
    Zr81   O183      0.63955      .   S
    Zr89   O184      1.07304      .   S
    Zr1    O184      1.07304      .   S
    Zr95   O185      1.07306      .   S
    Zr7    O185      1.07306      .   S
    Zr93   O186      1.07308      .   S
    Zr5    O186      1.07308      .   S
    Zr91   O187      1.07309      .   S
    Zr3    O187      1.07309      .   S
    Zr85   O188      1.03652      .   S
    Zr13   O188      1.03652      .   S
    Zr87   O189      1.03652      .   S
    Zr15   O189      1.03652      .   S
    Zr83   O190      1.03601      .   S
    Zr11   O190      1.03601      .   S
    Zr81   O191      1.03651      .   S
    Zr9    O191      1.03651      .   S
    Zr65   O192      1.03365      .   S
    Zr1    O192      1.03365      .   S
    Zr65   O193      0.63755      .   S
    Zr25   O193      0.63755      .   S
    Zr71   O194      1.03337      .   S
    Zr7    O194      1.03337      .   S
    Zr71   O195      0.63729      .   S
    Zr31   O195      0.63729      .   S
    Zr69   O196      1.03337      .   S
    Zr5    O196      1.03337      .   S
    Zr69   O197      0.63725      .   S
    Zr29   O197      0.63725      .   S
    Zr67   O198      1.03337      .   S
    Zr3    O198      1.03337      .   S
    Zr67   O199      0.63730      .   S
    Zr27   O199      0.63730      .   S
    Zr1    O200      1.02208      .   S
    Zr105  O200      1.02208      .   S
    Zr1    O201      1.03681      .   S
    Zr49   O201      1.03681      .   S
    Zr7    O202      1.02208      .   S
    Zr111  O202      1.02208      .   S
    Zr7    O203      1.03636      .   S
    Zr55   O203      1.03636      .   S
    Zr5    O204      1.02207      .   S
    Zr109  O204      1.02207      .   S
    Zr5    O205      1.03635      .   S
    Zr53   O205      1.03635      .   S
    Zr3    O206      1.02209      .   S
    Zr107  O206      1.02209      .   S
    Zr3    O207      1.03680      .   S
    Zr51   O207      1.03680      .   S
    Zr109  O208      0.63790      .   S
    Zr45   O208      0.63790      .   S
    Zr111  O209      0.63787      .   S
    Zr47   O209      0.63787      .   S
    Zr107  O210      0.63785      .   S
    Zr43   O210      0.63785      .   S
    Zr105  O211      0.63792      .   S
    Zr41   O211      0.63792      .   S
    Zr29   O212      0.63792      .   S
    Zr77   O212      0.63792      .   S
    Zr31   O213      0.63784      .   S
    Zr79   O213      0.63784      .   S
    Zr27   O214      0.63784      .   S
    Zr75   O214      0.63784      .   S
    Zr25   O215      0.63781      .   S
    Zr73   O215      0.63781      .   S
    Zr47   O216      0.63728      .   S
    Zr103  O216      0.63728      .   S
    Zr41   O217      0.63726      .   S
    Zr97   O217      0.63726      .   S
    Zr43   O218      0.63716      .   S
    Zr99   O218      0.63716      .   S
    Zr45   O219      0.63714      .   S
    Zr101  O219      0.63714      .   S
    Zr73   O220      1.02313      .   S
    Zr9    O220      1.02313      .   S
    Zr75   O221      1.02271      .   S
    Zr11   O221      1.02271      .   S
    Zr77   O222      1.02313      .   S
    Zr13   O222      1.02313      .   S
    Zr79   O223      1.02313      .   S
    Zr15   O223      1.02313      .   S
    Zr11   O224      1.03307      .   S
    Zr99   O224      1.03307      .   S
    Zr11   O225      1.07231      .   S
    Zr59   O225      1.07231      .   S
    Zr9    O226      1.03296      .   S
    Zr97   O226      1.03296      .   S
    Zr9    O227      1.07195      .   S
    Zr57   O227      1.07195      .   S
    Zr13   O228      1.03284      .   S
    Zr101  O228      1.03284      .   S
    Zr13   O229      1.07195      .   S
    Zr61   O229      1.07195      .   S
    Zr15   O230      1.03295      .   S
    Zr103  O230      1.03295      .   S
    Zr15   O231      1.07195      .   S
    Zr63   O231      1.07195      .   S
    Zr55   O232      0.64001      .   S
    Zr23   O232      0.64001      .   S
    Zr53   O233      0.64005      .   S
    Zr21   O233      0.64005      .   S
    Zr51   O234      0.63953      .   S
    Zr19   O234      0.63953      .   S
    Zr49   O235      0.63954      .   S
    Zr17   O235      0.63954      .   S
    Zr63   O236      0.63436      .   S
    Zr23   O236      0.63436      .   S
    Zr57   O237      0.63435      .   S
    Zr17   O237      0.63435      .   S
    Zr59   O238      0.63436      .   S
    Zr19   O238      0.63436      .   S
    Zr61   O239      0.63436      .   S
    Zr21   O239      0.63436      .   S
    Zr0    O240      1.45908      .   S
    Zr8    O240      1.45908      .   S
    Zr1    O241      1.45903      .   S
    Zr9    O241      1.45903      .   S
    Zr2    O242      1.45903      .   S
    Zr10   O242      1.45903      .   S
    Zr3    O243      1.45868      .   S
    Zr11   O243      1.45868      .   S
    Zr4    O244      1.45904      .   S
    Zr12   O244      1.45904      .   S
    Zr5    O245      1.45908      .   S
    Zr13   O245      1.45908      .   S
    Zr6    O246      1.45907      .   S
    Zr14   O246      1.45907      .   S
    Zr7    O247      1.45905      .   S
    Zr15   O247      1.45905      .   S
    N248   O249      1.07905  1_565   S
    Zr16   O249      1.83184      .   S
    N248   O250      1.07923      .   S
    Zr35   O250      1.83196      .   S
    N251   O252      1.07685  1_565   S
    Zr24   O252      1.82694      .   S
    N251   O253      1.07683      .   S
    Zr46   O253      1.82686      .   S
    N254   O255      2.28151  1_656   S
    Zr0    O255      3.29741      .   S
    N254   O256      2.28036      .   S
    Zr13   O256      3.29616      .   S
    N257   O258      1.07693  1_455   S
    Zr30   O258      1.82703      .   S
    N257   O259      1.07679      .   S
    Zr40   O259      1.82684      .   S
    N260   O261      1.07680      .   S
    Zr29   O261      1.82678      .   S
    N260   O262      1.07680  1_645   S
    Zr43   O262      1.82689      .   S
    N263   O264      2.28112      .   S
    Zr7    O264      3.29692      .   S
    N263   O265      2.28109      .   S
    Zr10   O265      3.29682      .   S
    N266   O267      2.28105  1_556   S
    Zr4    O267      3.29699      .   S
    N266   O268      2.28099      .   S
    Zr9    O268      3.29685      .   S
    N269   O270      2.27999      .   S
    Zr12   O270      3.29565      .   S
    N269   O271      2.28210  1_655   S
    Zr1    O271      3.29796      .   S
    N272   O273      2.28215  1_655   S
    Zr3    O273      3.29800      .   S
    N272   O274      2.27994      .   S
    Zr14   O274      3.29559      .   S
    N275   O276      1.07692      .   S
    Zr26   O276      1.82700      .   S
    N275   O277      1.07690      .   S
    Zr44   O277      1.82695      .   S
    N278   O279      1.07879  1_565   S
    Zr21   O279      1.83130      .   S
    N278   O280      1.07882  1_556   S
    Zr38   O280      1.83140      .   S
    N281   O282      2.28105  1_556   S
    Zr6    O282      3.29692      .   S
    N281   O283      2.28127      .   S
    Zr11   O283      3.29776      .   S
    N284   O285      2.28043      .   S
    Zr15   O285      3.29622      .   S
    N284   O286      2.28154  1_656   S
    Zr2    O286      3.29745      .   S
    N287   O288      1.07910  1_565   S
    Zr20   O288      1.83190      .   S
    N287   O289      1.07917      .   S
    Zr39   O289      1.83190      .   S
    N290   O291      1.07922      .   S
    Zr33   O291      1.83197      .   S
    N290   O292      1.07912      .   S
    Zr18   O292      1.83188      .   S
    N293   O294      1.07692      .   S
    Zr45   O294      1.82702      .   S
    N293   O295      1.07692      .   S
    Zr27   O295      1.82696      .   S
    N296   O297      1.07892  1_556   S
    Zr36   O297      1.83144      .   S
    N296   O298      1.07878      .   S
    Zr23   O298      1.83130      .   S
    N299   O300      1.07846      .   S
    Zr37   O300      1.83319      .   S
    N299   O301      1.07888      .   S
    Zr22   O301      1.83166      .   S
    N302   O303      1.07687      .   S
    Zr25   O303      1.82690      .   S
    N302   O304      1.07685  1_545   S
    Zr47   O304      1.82695      .   S
    N305   O306      1.07881      .   S
    Zr19   O306      1.83135      .   S
    N305   O307      1.07890  1_556   S
    Zr32   O307      1.83144      .   S
    N308   O309      1.07683  1_655   S
    Zr41   O309      1.82691      .   S
    N308   O310      1.07688      .   S
    Zr31   O310      1.82691      .   S
    N311   O312      1.07679      .   S
    Zr42   O312      1.82682      .   S
    N311   O313      1.07681  1_465   S
    Zr28   O313      1.82693      .   S
    N314   O315      1.07890  1_565   S
    Zr17   O315      1.83126      .   S
    N314   O316      1.07880  1_556   S
    Zr34   O316      1.83131      .   S
    N317   O318      2.28098      .   S
    Zr8    O318      3.29675      .   S
    N317   O319      2.28117      .   S
    Zr5    O319      3.29703      .   S
