# CIF file generated by openbabel 2.4.90, see http://openbabel.sf.net
data_I
_chemical_name_common ''
_cell_length_a 14.331
_cell_length_b 14.334
_cell_length_c 26.528
_cell_angle_alpha 80.065
_cell_angle_beta 80.129
_cell_angle_gamma 86.374
_space_group_name_H-M_alt 'P 1'
_space_group_name_Hall 'P 1'
loop_
    _symmetry_equiv_pos_as_xyz
    x,y,z
loop_
    _atom_site_label
    _atom_site_type_symbol
    _atom_site_fract_x
    _atom_site_fract_y
    _atom_site_fract_z
    _atom_site_occupancy
    H0      H    0.37063   0.84151   0.79491   1.000
    H1      H    0.53795   0.85388   0.74941   1.000
    H2      H    0.61949   0.61343   0.85657   1.000
    H3      H    0.45099   0.59725   0.89917   1.000
    H4      H    0.86039   0.70580   0.90952   1.000
    H5      H    0.71244   0.74846   0.87246   1.000
    H6      H    0.85039   0.66886   0.72781   1.000
    H7      H    0.00000   0.62193   0.76644   1.000
    H8      H    0.84434   0.11954   0.57223   1.000
    H9      H    0.83983   0.08320   0.66712   1.000
    H10     H    0.55065   0.00000   0.68650   1.000
    H11     H    0.55430   0.04058   0.59149   1.000
    H12     H    0.80844   0.00000   0.89382   1.000
    H13     H    0.68452   0.03500   0.83812   1.000
    H14     H    0.86110   0.93329   0.70932   1.000
    H15     H    0.98467   0.87963   0.76428   1.000
    H16     H    0.18261   0.00335   0.83917   1.000
    H17     H    0.19230   0.17383   0.84311   1.000
    H18     H    0.11846   0.10127   0.01070   1.000
    H19     H    0.10795   0.93551   0.99832   1.000
    H20     H    0.22642   0.46917   0.86025   1.000
    H21     H    0.23542   0.29998   0.85325   1.000
    H22     H    0.08897   0.24433   0.01237   1.000
    H23     H    0.08881   0.41573   0.01298   1.000
    H24     H    0.84523   0.37155   0.29520   1.000
    H25     H    0.85635   0.53886   0.24940   1.000
    H26     H    0.61567   0.61927   0.35656   1.000
    H27     H    0.60060   0.45075   0.39936   1.000
    H28     H    0.70704   0.86057   0.40921   1.000
    H29     H    0.75047   0.71289   0.37210   1.000
    H30     H    0.66870   0.85022   0.22774   1.000
    H31     H    0.62121   0.00000   0.26639   1.000
    H32     H    0.11982   0.84326   0.07132   1.000
    H33     H    0.08371   0.84040   0.16605   1.000
    H34     H    0.00000   0.55072   0.18715   1.000
    H35     H    0.04112   0.55290   0.09225   1.000
    H36     H    0.00000   0.80968   0.39341   1.000
    H37     H    0.03670   0.68607   0.33773   1.000
    H38     H    0.93416   0.86205   0.20883   1.000
    H39     H    0.87984   0.98542   0.26372   1.000
    H40     H    0.00630   0.18094   0.33921   1.000
    H41     H    0.17684   0.19118   0.34305   1.000
    H42     H    0.10465   0.11886   0.51077   1.000
    H43     H    0.93881   0.10791   0.49850   1.000
    H44     H    0.47191   0.22745   0.36010   1.000
    H45     H    0.30261   0.23579   0.35314   1.000
    H46     H    0.24793   0.08875   0.51224   1.000
    H47     H    0.41936   0.08941   0.51282   1.000
    H48     H    0.15514   0.62787   0.70489   1.000
    H49     H    0.14410   0.46061   0.75075   1.000
    H50     H    0.38470   0.38010   0.64359   1.000
    H51     H    0.39979   0.54862   0.60074   1.000
    H52     H    0.29291   0.13916   0.59082   1.000
    H53     H    0.24954   0.28678   0.62804   1.000
    H54     H    0.33138   0.14911   0.77232   1.000
    H55     H    0.37883   0.00272   0.73355   1.000
    H56     H    0.88029   0.15637   0.92854   1.000
    H57     H    0.91687   0.15922   0.83384   1.000
    H58     H    0.00081   0.44890   0.81287   1.000
    H59     H    0.95868   0.44681   0.90774   1.000
    H60     H    0.02126   0.18943   0.60666   1.000
    H61     H    0.96412   0.31326   0.66226   1.000
    H62     H    0.06633   0.13703   0.79119   1.000
    H63     H    0.12020   0.01354   0.73632   1.000
    H64     H    0.00000   0.81856   0.66082   1.000
    H65     H    0.82308   0.80865   0.65698   1.000
    H66     H    0.89535   0.88063   0.48926   1.000
    H67     H    0.06122   0.89141   0.50152   1.000
    H68     H    0.52806   0.77226   0.63992   1.000
    H69     H    0.69735   0.76405   0.64689   1.000
    H70     H    0.75205   0.91088   0.48775   1.000
    H71     H    0.58060   0.91013   0.48717   1.000
    H72     H    0.62938   0.15843   0.20504   1.000
    H73     H    0.46206   0.14605   0.25055   1.000
    H74     H    0.38050   0.38654   0.14342   1.000
    H75     H    0.54899   0.40273   0.10081   1.000
    H76     H    0.13963   0.29414   0.09044   1.000
    H77     H    0.28757   0.25147   0.12751   1.000
    H78     H    0.14961   0.33109   0.27215   1.000
    H79     H    0.00282   0.37797   0.23353   1.000
    H80     H    0.15565   0.88027   0.42779   1.000
    H81     H    0.16009   0.91670   0.33291   1.000
    H82     H    0.44926   0.00149   0.31349   1.000
    H83     H    0.44569   0.95924   0.40850   1.000
    H84     H    0.19146   0.02198   0.10621   1.000
    H85     H    0.31536   0.96491   0.16193   1.000
    H86     H    0.13874   0.06661   0.29071   1.000
    H87     H    0.01519   0.12029   0.23574   1.000
    H88     H    0.81754   0.00000   0.16087   1.000
    H89     H    0.80782   0.82599   0.15691   1.000
    H90     H    0.88130   0.89864   0.98930   1.000
    H91     H    0.89183   0.06438   0.00170   1.000
    C92     C    0.89486   0.30292   0.98159   1.000
    C93     C    0.91769   0.30133   0.92443   1.000
    C94     C    0.90731   0.22029   0.90317   1.000
    C95     C    0.92919   0.22173   0.84971   1.000
    H96     H    0.77357   0.53066   0.13970   1.000
    H97     H    0.76456   0.69984   0.14674   1.000
    H98     H    0.91099   0.75563   0.98762   1.000
    H99     H    0.91119   0.58424   0.98696   1.000
    C100    C    0.30038   0.71132   0.87739   1.000
    C101    C    0.40107   0.71954   0.85035   1.000
    C102    C    0.42569   0.79211   0.80812   1.000
    C103    C    0.51890   0.79919   0.78292   1.000
    C104    C    0.59013   0.73634   0.80074   1.000
    C105    C    0.56529   0.66391   0.84320   1.000
    C106    C    0.47120   0.65455   0.86712   1.000
    C107    C    0.02738   0.63396   0.86207   1.000
    C108    C    0.93780   0.66117   0.84029   1.000
    C109    C    0.85707   0.69590   0.87015   1.000
    C110    C    0.77417   0.71956   0.84930   1.000
    C111    C    0.77154   0.71081   0.79768   1.000
    C112    C    0.85282   0.67605   0.76778   1.000
    C113    C    0.93450   0.65036   0.78903   1.000
    C114    C    0.68861   0.74509   0.77173   1.000
    C115    C    0.69884   0.10489   0.51836   1.000
    C116    C    0.69969   0.08191   0.57558   1.000
    C117    C    0.78016   0.09249   0.59731   1.000
    C118    C    0.77777   0.07072   0.65087   1.000
    C119    C    0.69511   0.03592   0.68353   1.000
    C120    C    0.61490   0.02496   0.66138   1.000
    C121    C    0.61680   0.04844   0.60835   1.000
    C122    C    0.97415   0.88672   0.86708   1.000
    C123    C    0.90399   0.92556   0.83234   1.000
    C124    C    0.84175   0.84596   0.07229   1.000
    C125    C    0.86566   0.91550   0.02843   1.000
    C126    C    0.87146   0.00897   0.03468   1.000
    C127    C    0.80116   0.58344   0.10672   1.000
    C128    C    0.79688   0.67897   0.11008   1.000
    C129    C    0.81958   0.97034   0.85304   1.000
    C130    C    0.75114   0.00190   0.82231   1.000
    C131    C    0.76499   0.00000   0.77001   1.000
    C132    C    0.85010   0.94586   0.74924   1.000
    C133    C    0.91919   0.91463   0.78005   1.000
    C134    C    0.68313   0.01592   0.74156   1.000
    C135    C    0.16981   0.02862   0.87630   1.000
    C136    C    0.17591   0.12382   0.87909   1.000
    C137    C    0.15819   0.15391   0.92773   1.000
    C138    C    0.13418   0.08439   0.97158   1.000
    C139    C    0.12839   0.99090   0.96534   1.000
    C140    C    0.19883   0.41642   0.89323   1.000
    C141    C    0.20310   0.32088   0.88991   1.000
    C142    C    0.16211   0.25516   0.93217   1.000
    C143    C    0.12234   0.29033   0.97776   1.000
    C144    C    0.12129   0.38707   0.97842   1.000
    C145    C    0.71525   0.30070   0.37759   1.000
    C146    C    0.72313   0.40144   0.35057   1.000
    C147    C    0.79552   0.42639   0.30833   1.000
    C148    C    0.80191   0.51958   0.28298   1.000
    C149    C    0.73858   0.59047   0.30071   1.000
    C150    C    0.66645   0.56532   0.34325   1.000
    C151    C    0.65774   0.47123   0.36729   1.000
    C152    C    0.63416   0.02710   0.36193   1.000
    C153    C    0.66137   0.93765   0.34013   1.000
    C154    C    0.69683   0.85713   0.36991   1.000
    C155    C    0.72091   0.77441   0.34903   1.000
    C156    C    0.71176   0.77171   0.29747   1.000
    C157    C    0.67622   0.85273   0.26766   1.000
    C158    C    0.65018   0.93427   0.28893   1.000
    C159    C    0.74631   0.68893   0.27153   1.000
    C160    C    0.10511   0.69660   0.01837   1.000
    C161    C    0.08231   0.69830   0.07551   1.000
    C162    C    0.09285   0.77935   0.09672   1.000
    C163    C    0.07125   0.77791   0.15019   1.000
    C164    C    0.03684   0.69556   0.18331   1.000
    C165    C    0.02584   0.61477   0.16168   1.000
    C166    C    0.04899   0.61581   0.10872   1.000
    C167    C    0.88704   0.97482   0.36664   1.000
    C168    C    0.92593   0.90489   0.33187   1.000
    C169    C    0.97114   0.82074   0.35262   1.000
    C170    C    0.00323   0.75250   0.32191   1.000
    C171    C    0.00000   0.76625   0.26959   1.000
    C172    C    0.94669   0.85111   0.24876   1.000
    C173    C    0.91505   0.92007   0.27955   1.000
    C174    C    0.01792   0.68435   0.24132   1.000
    C175    C    0.03174   0.16859   0.37633   1.000
    C176    C    0.12692   0.17501   0.37906   1.000
    C177    C    0.15707   0.15792   0.42771   1.000
    C178    C    0.08768   0.13418   0.47163   1.000
    C179    C    0.99415   0.12805   0.46546   1.000
    C180    C    0.41932   0.19966   0.39310   1.000
    C181    C    0.32376   0.20355   0.38979   1.000
    C182    C    0.25831   0.16225   0.43209   1.000
    C183    C    0.29371   0.12250   0.47764   1.000
    C184    C    0.39047   0.12184   0.47827   1.000
    C185    C    0.28486   0.69862   0.62239   1.000
    C186    C    0.27721   0.59793   0.64950   1.000
    C187    C    0.20487   0.57304   0.69178   1.000
    C188    C    0.19852   0.47989   0.71717   1.000
    C189    C    0.26180   0.40899   0.69942   1.000
    C190    C    0.33394   0.43408   0.65688   1.000
    C191    C    0.34265   0.52815   0.63282   1.000
    C192    C    0.36586   0.97258   0.63802   1.000
    C193    C    0.33862   0.06198   0.65986   1.000
    C194    C    0.30312   0.14252   0.63013   1.000
    C195    C    0.27909   0.22519   0.65107   1.000
    C196    C    0.28829   0.22778   0.70263   1.000
    C197    C    0.32382   0.14670   0.73240   1.000
    C198    C    0.34984   0.06524   0.71107   1.000
    C199    C    0.25388   0.31057   0.72858   1.000
    C200    C    0.96384   0.30405   0.81663   1.000
    C201    C    0.97453   0.38486   0.83831   1.000
    C202    C    0.95101   0.38387   0.89125   1.000
    C203    C    0.11286   0.02366   0.63367   1.000
    C204    C    0.07415   0.09407   0.66819   1.000
    C205    C    0.02911   0.17833   0.64743   1.000
    C206    C    0.99739   0.24673   0.67812   1.000
    C207    C    0.01004   0.23302   0.73042   1.000
    C208    C    0.05374   0.14801   0.75127   1.000
    C209    C    0.08511   0.07897   0.72050   1.000
    C210    C    0.98374   0.31515   0.75863   1.000
    C211    C    0.96823   0.83093   0.62370   1.000
    C212    C    0.87302   0.82469   0.62097   1.000
    C213    C    0.84289   0.84177   0.57232   1.000
    C214    C    0.91231   0.86536   0.52840   1.000
    C215    C    0.00586   0.87135   0.53457   1.000
    C216    C    0.58065   0.80006   0.60692   1.000
    C217    C    0.67620   0.79623   0.61023   1.000
    C218    C    0.74165   0.83750   0.56793   1.000
    C219    C    0.70626   0.87718   0.52236   1.000
    C220    C    0.60950   0.87778   0.52173   1.000
    C221    C    0.69961   0.28865   0.12255   1.000
    C222    C    0.59893   0.28043   0.14961   1.000
    C223    C    0.57432   0.20784   0.19183   1.000
    C224    C    0.48111   0.20076   0.21704   1.000
    C225    C    0.40987   0.26362   0.19923   1.000
    C226    C    0.43470   0.33606   0.15678   1.000
    C227    C    0.52879   0.34542   0.13285   1.000
    C228    C    0.97262   0.36598   0.13790   1.000
    C229    C    0.06220   0.33875   0.15968   1.000
    C230    C    0.14294   0.30402   0.12982   1.000
    C231    C    0.22583   0.28037   0.15067   1.000
    C232    C    0.22846   0.28912   0.20229   1.000
    C233    C    0.14718   0.32388   0.23219   1.000
    C234    C    0.06550   0.34955   0.21094   1.000
    C235    C    0.31139   0.25486   0.22825   1.000
    C236    C    0.30118   0.89490   0.48163   1.000
    C237    C    0.30031   0.91791   0.42442   1.000
    C238    C    0.21981   0.90735   0.40270   1.000
    C239    C    0.22216   0.92917   0.34916   1.000
    C240    C    0.30480   0.96401   0.31648   1.000
    C241    C    0.38503   0.97496   0.33862   1.000
    C242    C    0.38318   0.95142   0.39164   1.000
    C243    C    0.02579   0.11324   0.13292   1.000
    C244    C    0.09590   0.07437   0.16768   1.000
    C245    C    0.18031   0.02958   0.14699   1.000
    C246    C    0.24874   0.99802   0.17773   1.000
    C247    C    0.23486   0.01053   0.23003   1.000
    C248    C    0.14975   0.05405   0.25080   1.000
    C249    C    0.08068   0.08529   0.21997   1.000
    C250    C    0.31674   0.98402   0.25846   1.000
    C251    C    0.83025   0.97122   0.12372   1.000
    C252    C    0.82414   0.87602   0.12094   1.000
    C253    C    0.83785   0.74472   0.06782   1.000
    C254    C    0.87762   0.70960   0.02222   1.000
    C255    C    0.87869   0.61286   0.02153   1.000
    N256    N    0.14613   0.96236   0.91866   1.000
    N257    N    0.15751   0.44990   0.93660   1.000
    N258    N    0.96558   0.14518   0.41876   1.000
    N259    N    0.45305   0.15840   0.43645   1.000
    N260    N    0.03442   0.85417   0.58127   1.000
    N261    N    0.54692   0.84123   0.56356   1.000
    N262    N    0.85384   0.03749   0.08136   1.000
    N263    N    0.84248   0.55000   0.06334   1.000
    O264    O    0.24757   0.78597   0.87402   1.000
    O265    O    0.27599   0.62949   0.90200   1.000
    O266    O    0.02858   0.65413   0.90845   1.000
    O267    O    0.09462   0.59237   0.83762   1.000
    O268    O    0.70259   0.78162   0.72525   1.000
    O269    O    0.77816   0.10688   0.48780   1.000
    O270    O    0.61734   0.11946   0.50482   1.000
    O271    O    0.95121   0.88033   0.91573   1.000
    O272    O    0.05721   0.86016   0.84594   1.000
    O273    O    0.60243   0.02069   0.76676   1.000
    O274    O    0.79011   0.24820   0.37454   1.000
    O275    O    0.63331   0.27598   0.40185   1.000
    O276    O    0.65448   0.02798   0.40830   1.000
    O277    O    0.59270   0.09452   0.33746   1.000
    O278    O    0.78211   0.70298   0.22495   1.000
    O279    O    0.10709   0.77575   0.98761   1.000
    O280    O    0.11948   0.61489   0.00513   1.000
    O281    O    0.88071   0.95169   0.41532   1.000
    O282    O    0.86066   0.05800   0.34564   1.000
    O283    O    0.02439   0.60402   0.26674   1.000
    O284    O    0.20973   0.75070   0.62515   1.000
    O285    O    0.36686   0.72367   0.59837   1.000
    O286    O    0.34552   0.97168   0.59167   1.000
    O287    O    0.40739   0.90522   0.66250   1.000
    O288    O    0.21798   0.29661   0.77514   1.000
    O289    O    0.89294   0.22372   0.01231   1.000
    O290    O    0.88046   0.38458   0.99488   1.000
    O291    O    0.11917   0.04596   0.58493   1.000
    O292    O    0.13926   0.94068   0.65489   1.000
    O293    O    0.97911   0.39560   0.73311   1.000
    O294    O    0.75240   0.21398   0.12586   1.000
    O295    O    0.72401   0.37050   0.09798   1.000
    O296    O    0.97142   0.34583   0.09151   1.000
    O297    O    0.90539   0.40757   0.16236   1.000
    O298    O    0.29741   0.21835   0.27474   1.000
    O299    O    0.22186   0.89295   0.51218   1.000
    O300    O    0.38268   0.88032   0.49517   1.000
    O301    O    0.04876   0.11963   0.08428   1.000
    O302    O    0.94272   0.13981   0.15405   1.000
    O303    O    0.39742   0.97929   0.23324   1.000
loop_
    _geom_bond_atom_site_label_1
    _geom_bond_atom_site_label_2
    _geom_bond_distance
    _geom_bond_site_symmetry_2
    _ccdc_geom_bond_type
    H91    C126      1.08792      .   S
    O280   C160      1.27451      .   S
    H18    C138      1.08905  1_554   S
    O289   C92       1.27696  1_554   S
    H22    C143      1.08941  1_554   S
    H23    C144      1.08886  1_554   S
    C160   C161      1.49889      .   S
    C160   O279      1.27686  1_554   S
    C255   C254      1.38894      .   S
    C255   N263      1.35207      .   S
    C255   H99       1.08886  1_554   S
    C254   C253      1.40684      .   S
    C254   H98       1.08943  1_554   S
    C125   C126      1.38747  1_565   S
    C125   C124      1.40380      .   S
    C125   H90       1.08907  1_554   S
    C126   N262      1.34855      .   S
    N263   C127      1.35125      .   S
    C253   C124      1.48148      .   S
    C253   C128      1.40328      .   S
    H32    C162      1.08857      .   S
    C124   C252      1.40765      .   S
    C161   C162      1.40219      .   S
    C161   C166      1.40370      .   S
    N262   C251      1.34966  1_545   S
    O301   C243      1.26475      .   S
    H76    C230      1.08730      .   S
    O296   C228      1.31460      .   S
    H35    C166      1.08736      .   S
    C162   C163      1.39583      .   S
    O295   C221      1.27809      .   S
    H75    C227      1.08908      .   S
    H84    C245      1.08945      .   S
    C127   C128      1.38422      .   S
    C127   H96       1.08847      .   S
    C166   C165      1.38490      .   S
    C128   H97       1.08570      .   S
    C252   C251      1.38830      .   S
    C252   H89       1.09004      .   S
    C221   O294      1.27026      .   S
    C221   C222      1.49941      .   S
    C251   H88       1.11511  1_565   S
    H77    C231      1.08951      .   S
    C230   C231      1.39351      .   S
    C230   C229      1.40109      .   S
    C227   C222      1.40283      .   S
    C227   C226      1.39245      .   S
    C243   O302      1.28995  1_455   S
    C243   C244      1.49660      .   S
    C228   C229      1.49903  1_655   S
    C228   O297      1.24551      .   S
    H74    C226      1.08969      .   S
    C245   C244      1.40443      .   S
    C245   C246      1.38648  1_545   S
    C222   C223      1.40370      .   S
    C163   H33       1.08953      .   S
    C163   C164      1.40571      .   S
    C231   C232      1.40348      .   S
    C226   C225      1.40683      .   S
    C229   C234      1.40405      .   S
    C165   C164      1.40645      .   S
    C165   H34       1.08614      .   S
    H85    C246      1.08931      .   S
    C244   C249      1.40110      .   S
    C246   C247      1.40826  1_565   S
    C164   C174      1.49811      .   S
    C223   H72       1.08871      .   S
    C223   C224      1.38895      .   S
    C225   C224      1.40689      .   S
    C225   C235      1.48883      .   S
    C232   C235      1.48935      .   S
    C232   C233      1.40719      .   S
    H38    C172      1.08790      .   S
    C234   C233      1.38689      .   S
    C234   H79       1.08875      .   S
    C224   H73       1.08757      .   S
    C249   H87       1.08891      .   S
    C249   C248      1.39433      .   S
    O278   C159      1.24109      .   S
    H30    C157      1.08936      .   S
    C235   O298      1.24127      .   S
    C247   C248      1.40440      .   S
    C247   C250      1.49614  1_545   S
    C233   H78       1.08937      .   S
    O303   C250      1.23673      .   S
    C174   O283      1.23649      .   S
    C174   C171      1.48545      .   S
    C172   C171      1.47095  1_655   S
    C172   C173      1.39460      .   S
    H25    C148      1.08755      .   S
    C248   H86       1.08782      .   S
    C250   C240      1.49820      .   S
    H39    C173      1.08893      .   S
    H31    C158      1.12198  1_545   S
    C157   C158      1.38703      .   S
    C157   C156      1.40720      .   S
    C171   C170      1.37598      .   S
    C159   C156      1.48897      .   S
    C159   C149      1.48886      .   S
    C173   C168      1.40118      .   S
    C148   C149      1.40684      .   S
    C148   C147      1.38901      .   S
    C158   C153      1.40403      .   S
    H24    C147      1.08872      .   S
    C156   C155      1.40340      .   S
    C149   C150      1.40672      .   S
    C147   C146      1.40355      .   S
    H82    C241      1.08750  1_545   S
    C240   C241      1.40636      .   S
    C240   C239      1.40594      .   S
    C170   H37       1.08924      .   S
    C170   C169      1.38621  1_455   S
    C168   C169      1.40431      .   S
    C168   C167      1.49620      .   S
    H81    C239      1.08946      .   S
    O277   C152      1.24567      .   S
    C241   C242      1.38477      .   S
    H40    C175      1.09033      .   S
    C153   C152      1.49875  1_565   S
    C153   C154      1.40112      .   S
    H41    C176      1.09003      .   S
    C150   H26       1.08962      .   S
    C150   C151      1.39222      .   S
    O282   C167      1.28872  1_545   S
    C155   C154      1.39328      .   S
    C155   H29       1.08949      .   S
    C239   C238      1.39586      .   S
    C146   C151      1.40272      .   S
    C146   C145      1.49909      .   S
    C169   H36       1.20533  1_655   S
    H45    C181      1.08590      .   S
    H44    C180      1.08844      .   S
    C152   O276      1.31385      .   S
    C167   O281      1.26544      .   S
    C151   H27       1.08907      .   S
    C154   H28       1.08724      .   S
    O274   C145      1.27006      .   S
    C175   C176      1.38800      .   S
    C175   N258      1.35000  1_455   S
    C145   O275      1.27802      .   S
    C176   C177      1.40751      .   S
    C181   C180      1.38427      .   S
    C181   C182      1.40339      .   S
    C242   H83       1.08743      .   S
    C242   C237      1.40389      .   S
    C180   N259      1.35107      .   S
    C238   C237      1.40200      .   S
    C238   H80       1.08871      .   S
    N258   C179      1.34864      .   S
    C237   C236      1.49867      .   S
    C177   C182      1.48118      .   S
    C177   C178      1.40382      .   S
    C182   C183      1.40663      .   S
    N259   C184      1.35187      .   S
    C179   C178      1.38790  1_655   S
    C179   H43       1.08811      .   S
    C178   H42       1.08938      .   S
    C183   C184      1.38898      .   S
    C183   H46       1.08956      .   S
    C184   H47       1.08918      .   S
    C236   O300      1.27435      .   S
    C236   O299      1.27674      .   S
    H71    C220      1.08919      .   S
    H70    C219      1.08960      .   S
    O269   C115      1.27694      .   S
    H66    C214      1.08927      .   S
    H67    C215      1.08813      .   S
    O270   C115      1.27425      .   S
    C115   C116      1.49876      .   S
    C220   C219      1.38898      .   S
    C220   N261      1.35188      .   S
    C219   C218      1.40668      .   S
    C214   C215      1.38789  1_655   S
    C214   C213      1.40375      .   S
    C215   N260      1.34855      .   S
    N261   C216      1.35106      .   S
    C218   C213      1.48112      .   S
    C218   C217      1.40335      .   S
    H8     C117      1.08871      .   S
    C213   C212      1.40747      .   S
    C116   C117      1.40201      .   S
    C116   C121      1.40395      .   S
    N260   C211      1.34993  1_455   S
    O291   C203      1.26622      .   S
    H52    C194      1.08730      .   S
    H11    C121      1.08743      .   S
    O286   C192      1.31377      .   S
    C117   C118      1.39589      .   S
    O285   C185      1.27816      .   S
    H51    C191      1.08905      .   S
    H60    C205      1.08965      .   S
    C216   C217      1.38421      .   S
    C216   H68       1.08844      .   S
    C121   C120      1.38480      .   S
    C217   H69       1.08586      .   S
    C212   C211      1.38798      .   S
    C212   H65       1.09001      .   S
    C185   O284      1.26975      .   S
    C185   C186      1.49902      .   S
    C211   H64       1.13656  1_655   S
    H53    C195      1.08946      .   S
    C194   C195      1.39324      .   S
    C194   C193      1.40099      .   S
    C191   C186      1.40270      .   S
    C191   C190      1.39221      .   S
    C203   O292      1.28830  1_545   S
    C203   C204      1.49630      .   S
    C192   C193      1.49849  1_565   S
    C192   O287      1.24559      .   S
    H50    C190      1.08964      .   S
    C205   C204      1.40449      .   S
    C205   C206      1.38673  1_455   S
    C186   C187      1.40351      .   S
    C118   H9        1.08946      .   S
    C118   C119      1.40596      .   S
    C195   C196      1.40342      .   S
    C190   C189      1.40664      .   S
    C193   C198      1.40396      .   S
    C120   C119      1.40636      .   S
    C120   H10       1.08115      .   S
    H61    C206      1.08933      .   S
    C204   C209      1.40126      .   S
    C206   C207      1.40850  1_655   S
    C119   C134      1.49831      .   S
    C187   H48       1.08869      .   S
    C187   C188      1.38881      .   S
    C189   C188      1.40674      .   S
    C189   C199      1.48829      .   S
    C196   C199      1.48889      .   S
    C196   C197      1.40714      .   S
    H14    C132      1.08784      .   S
    C198   C197      1.38695      .   S
    C198   H55       1.08842      .   S
    C188   H49       1.08744      .   S
    C209   H63       1.08887      .   S
    C209   C208      1.39441      .   S
    O268   C114      1.24124      .   S
    H6     C112      1.08938      .   S
    C199   O288      1.24108      .   S
    C207   C208      1.40452      .   S
    C207   C210      1.49657  1_455   S
    C197   H54       1.08935      .   S
    O293   C210      1.23646      .   S
    C134   O273      1.23676      .   S
    C134   C131      1.48602      .   S
    C132   C131      1.48013  1_565   S
    C132   C133      1.39432      .   S
    H1     C103      1.08756      .   S
    C208   H62       1.08786      .   S
    C210   C200      1.49835      .   S
    H15    C133      1.08890      .   S
    H7     C113      1.11778  1_455   S
    C112   C113      1.38692      .   S
    C112   C111      1.40721      .   S
    C131   C130      1.37218      .   S
    C114   C111      1.48934      .   S
    C114   C104      1.48881      .   S
    C133   C123      1.40110      .   S
    C103   C104      1.40688      .   S
    C103   C102      1.38892      .   S
    C113   C108      1.40406      .   S
    H0     C102      1.08869      .   S
    C111   C110      1.40348      .   S
    C104   C105      1.40682      .   S
    C102   C101      1.40369      .   S
    H58    C201      1.08747  1_455   S
    C200   C201      1.40657      .   S
    C200   C95       1.40581      .   S
    C130   H13       1.08932      .   S
    C130   C129      1.38655  1_545   S
    C123   C129      1.40446      .   S
    C123   C122      1.49671      .   S
    H57    C95       1.08950      .   S
    O267   C107      1.24552      .   S
    C201   C202      1.38495      .   S
    H16    C135      1.09006      .   S
    C108   C107      1.49902  1_655   S
    C108   C109      1.40109      .   S
    H17    C136      1.09003      .   S
    C105   H2        1.08968      .   S
    C105   C106      1.39244      .   S
    O272   C122      1.28996  1_455   S
    C110   C109      1.39350      .   S
    C110   H5        1.08949      .   S
    C95    C94       1.39588      .   S
    C101   C106      1.40283      .   S
    C101   C100      1.49939      .   S
    C129   H12       1.21133  1_565   S
    H21    C141      1.08567      .   S
    H20    C140      1.08848      .   S
    C107   O266      1.31460      .   S
    C122   O271      1.26476      .   S
    C106   H3        1.08907      .   S
    C109   H4        1.08727      .   S
    O264   C100      1.27028      .   S
    C135   C136      1.38827      .   S
    C135   N256      1.34969  1_545   S
    C100   O265      1.27811      .   S
    C136   C137      1.40765      .   S
    C141   C140      1.38421      .   S
    C141   C142      1.40331      .   S
    C202   H59       1.08740      .   S
    C202   C93       1.40373      .   S
    C140   N257      1.35119      .   S
    C94    C93       1.40220      .   S
    C94    H56       1.08857      .   S
    N256   C139      1.34857      .   S
    C93    C92       1.49908      .   S
    C137   C142      1.48154      .   S
    C137   C138      1.40385      .   S
    C142   C143      1.40685      .   S
    N257   C144      1.35207      .   S
    C139   C138      1.38752  1_565   S
    C139   H19       1.08793      .   S
    C143   C144      1.38897      .   S
    C92    O290      1.27437      .   S
