# CIF file generated by openbabel 2.4.90, see http://openbabel.sf.net
data_I
_chemical_name_common ''
_cell_length_a 14.331
_cell_length_b 14.334
_cell_length_c 26.528
_cell_angle_alpha 80.065
_cell_angle_beta 80.129
_cell_angle_gamma 86.374
_space_group_name_H-M_alt 'P 1'
_space_group_name_Hall 'P 1'
loop_
    _symmetry_equiv_pos_as_xyz
    x,y,z
loop_
    _atom_site_label
    _atom_site_type_symbol
    _atom_site_fract_x
    _atom_site_fract_y
    _atom_site_fract_z
    _atom_site_occupancy
    N0      N    0.15594   0.20535   0.92885   1.000
    N1      N    0.70408   0.67403   0.32858   1.000
    N2      N    0.22550   0.99401   0.28734   1.000
    N3      N    0.84403   0.79471   0.07115   1.000
    N4      N    0.99372   0.22472   0.78760   1.000
    N5      N    0.67386   0.70230   0.82863   1.000
    N6      N    0.32624   0.29764   0.17134   1.000
    N7      N    0.00778   0.77457   0.21242   1.000
    N8      N    0.77442   0.00711   0.71268   1.000
    N9      N    0.20851   0.15587   0.42881   1.000
    N10     N    0.79178   0.84374   0.57121   1.000
    N11     N    0.29608   0.32558   0.67147   1.000
    Zr12    Zr   0.85523   0.40700   0.06828   1.000
    O13     O    0.70658   0.37510   0.09776   1.000
    O14     O    0.85084   0.52180   0.06838   1.000
    O15     O    0.98751   0.37202   0.09695   1.000
    O16     O    0.89301   0.35863   0.98894   1.000
    Zr17    Zr   0.11900   0.82363   0.91044   1.000
    O18     O    0.02513   0.87406   0.85294   1.000
    O19     O    0.27379   0.78859   0.88543   1.000
    O20     O    0.08971   0.80538   0.99558   1.000
    O21     O    0.13162   0.93640   0.91607   1.000
    Zr22    Zr   0.14478   0.59291   0.93165   1.000
    O23     O    0.29345   0.62483   0.90219   1.000
    O24     O    0.01253   0.62791   0.90300   1.000
    O25     O    0.10737   0.64107   0.01103   1.000
    O26     O    0.14916   0.47814   0.93157   1.000
    Zr27    Zr   0.82713   0.11896   0.41061   1.000
    O28     O    0.93978   0.13147   0.41618   1.000
    O29     O    0.80783   0.08949   0.49578   1.000
    O30     O    0.87648   0.02524   0.35294   1.000
    O31     O    0.79174   0.27388   0.38560   1.000
    Zr32    Zr   0.59635   0.14497   0.43131   1.000
    O33     O    0.64349   0.10731   0.51084   1.000
    O34     O    0.63055   0.01261   0.40275   1.000
    O35     O    0.48148   0.14937   0.43132   1.000
    O36     O    0.62791   0.29361   0.40194   1.000
    Zr37    Zr   0.17285   0.88060   0.58939   1.000
    O38     O    0.12387   0.97414   0.64713   1.000
    O39     O    0.20827   0.72561   0.61438   1.000
    O40     O    0.06028   0.86808   0.58383   1.000
    O41     O    0.19214   0.91050   0.50423   1.000
    Zr42    Zr   0.40362   0.85457   0.56870   1.000
    O43     O    0.51857   0.85020   0.56869   1.000
    O44     O    0.37214   0.70596   0.59810   1.000
    O45     O    0.36947   0.98696   0.59727   1.000
    O46     O    0.35647   0.89265   0.48917   1.000
    Zr47    Zr   0.88100   0.17627   0.08953   1.000
    O48     O    0.97484   0.12615   0.14705   1.000
    O49     O    0.86836   0.06353   0.08391   1.000
    O50     O    0.91067   0.19431   0.00439   1.000
    O51     O    0.72623   0.21132   0.11452   1.000
loop_
    _geom_bond_atom_site_label_1
    _geom_bond_atom_site_label_2
    _geom_bond_distance
    _geom_bond_site_symmetry_2
    _ccdc_geom_bond_type
    Zr12   O13       2.18804      .   S
    N6     O13       5.57879      .   S
    Zr12   O14       1.64319      .   S
    N3     O14       3.91985      .   S
    Zr12   O15       2.16001      .   S
    N6     O15       5.52260  1_455   S
    Zr12   O16       2.29564  1_554   S
    N4     O16       5.90241      .   S
    Zr17   O18       2.20435      .   S
    N8     O18       5.62660  1_645   S
    Zr17   O19       2.25443      .   S
    N5     O19       5.78425      .   S
    Zr17   O20       2.19796      .   S
    N7     O20       5.61567  1_554   S
    Zr17   O21       1.67263      .   S
    N0     O21       3.96984  1_545   S
    Zr22   O23       2.18832      .   S
    N5     O23       5.57967      .   S
    Zr22   O24       2.15965      .   S
    N5     O24       5.52152  1_655   S
    Zr22   O25       2.29470  1_556   S
    N7     O25       5.89982      .   S
    Zr22   O26       1.64264      .   S
    N0     O26       3.91812      .   S
    Zr27   O28       1.66966      .   S
    N9     O28       3.96475  1_455   S
    Zr27   O29       2.19778      .   S
    N8     O29       5.61369      .   S
    Zr27   O30       2.20533      .   S
    N7     O30       5.63121  1_465   S
    Zr27   O31       2.25684      .   S
    N1     O31       5.78880      .   S
    Zr32   O33       2.29099      .   S
    N8     O33       5.89091      .   S
    Zr32   O34       2.15974      .   S
    N1     O34       5.52014  1_565   S
    Zr32   O35       1.64340      .   S
    N9     O35       3.91891      .   S
    Zr32   O36       2.18615      .   S
    N1     O36       5.57464      .   S
    Zr37   O38       2.20399      .   S
    N4     O38       5.62618  1_645   S
    Zr37   O39       2.25775      .   S
    N11    O39       5.78799      .   S
    Zr37   O40       1.66853      .   S
    N10    O40       3.96129  1_655   S
    Zr37   O41       2.19797      .   S
    N2     O41       5.61416      .   S
    Zr42   O43       1.64454      .   S
    N10    O43       3.92235      .   S
    Zr42   O44       2.18569      .   S
    N11    O44       5.57385      .   S
    Zr42   O45       2.16019      .   S
    N11    O45       5.52100  1_545   S
    Zr42   O46       2.29141      .   S
    N2     O46       5.89219      .   S
    Zr47   O48       2.20361      .   S
    N2     O48       5.62433  1_465   S
    Zr47   O49       1.67205      .   S
    N3     O49       3.96799  1_565   S
    Zr47   O50       2.19803      .   S
    N4     O50       5.61563  1_556   S
    Zr47   O51       2.25415      .   S
    N6     O51       5.78328      .   S
