# CIF file generated by openbabel 2.4.90, see http://openbabel.sf.net
data_I
_chemical_name_common ''
_cell_length_a 14.331
_cell_length_b 14.334
_cell_length_c 26.528
_cell_angle_alpha 80.065
_cell_angle_beta 80.129
_cell_angle_gamma 86.374
_space_group_name_H-M_alt 'P 1'
_space_group_name_Hall 'P 1'
loop_
    _symmetry_equiv_pos_as_xyz
    x,y,z
loop_
    _atom_site_label
    _atom_site_type_symbol
    _atom_site_fract_x
    _atom_site_fract_y
    _atom_site_fract_z
    _atom_site_occupancy
    C0      C    0.11900   0.82363   0.91044   1.000
    C1      C    0.14478   0.59291   0.93165   1.000
    C2      C    0.82713   0.11896   0.41061   1.000
    C3      C    0.59635   0.14497   0.43131   1.000
    C4      C    0.17285   0.88060   0.58939   1.000
    C5      C    0.40362   0.85457   0.56870   1.000
    C6      C    0.88100   0.17627   0.08953   1.000
    C7      C    0.85523   0.40700   0.06828   1.000
    C8      C    0.37063   0.84151   0.79491   1.000
    C9      C    0.53795   0.85388   0.74941   1.000
    C10     C    0.61949   0.61343   0.85657   1.000
    C11     C    0.45099   0.59725   0.89917   1.000
    C12     C    0.86039   0.70580   0.90952   1.000
    C13     C    0.71244   0.74846   0.87246   1.000
    C14     C    0.85039   0.66886   0.72781   1.000
    C15     C    0.00000   0.62193   0.76644   1.000
    C16     C    0.84434   0.11954   0.57223   1.000
    C17     C    0.83983   0.08320   0.66712   1.000
    C18     C    0.55065   0.00000   0.68650   1.000
    C19     C    0.55430   0.04058   0.59149   1.000
    C20     C    0.80844   0.00000   0.89382   1.000
    C21     C    0.68452   0.03500   0.83812   1.000
    C22     C    0.86110   0.93329   0.70932   1.000
    C23     C    0.98467   0.87963   0.76428   1.000
    C24     C    0.18261   0.00335   0.83917   1.000
    C25     C    0.19230   0.17383   0.84311   1.000
    C26     C    0.11846   0.10127   0.01070   1.000
    C27     C    0.10795   0.93551   0.99832   1.000
    C28     C    0.22642   0.46917   0.86025   1.000
    C29     C    0.23542   0.29998   0.85325   1.000
    C30     C    0.08897   0.24433   0.01237   1.000
    C31     C    0.08881   0.41573   0.01298   1.000
    C32     C    0.84523   0.37155   0.29520   1.000
    C33     C    0.85635   0.53886   0.24940   1.000
    C34     C    0.61567   0.61927   0.35656   1.000
    C35     C    0.60060   0.45075   0.39936   1.000
    C36     C    0.70704   0.86057   0.40921   1.000
    C37     C    0.75047   0.71289   0.37210   1.000
    C38     C    0.66870   0.85022   0.22774   1.000
    C39     C    0.62121   0.00000   0.26639   1.000
    C40     C    0.11982   0.84326   0.07132   1.000
    C41     C    0.08371   0.84040   0.16605   1.000
    C42     C    0.00000   0.55072   0.18715   1.000
    C43     C    0.04112   0.55290   0.09225   1.000
    C44     C    0.00000   0.80968   0.39341   1.000
    C45     C    0.03670   0.68607   0.33773   1.000
    C46     C    0.93416   0.86205   0.20883   1.000
    C47     C    0.87984   0.98542   0.26372   1.000
    C48     C    0.00630   0.18094   0.33921   1.000
    C49     C    0.17684   0.19118   0.34305   1.000
    C50     C    0.10465   0.11886   0.51077   1.000
    C51     C    0.93881   0.10791   0.49850   1.000
    C52     C    0.47191   0.22745   0.36010   1.000
    C53     C    0.30261   0.23579   0.35314   1.000
    C54     C    0.24793   0.08875   0.51224   1.000
    C55     C    0.41936   0.08941   0.51282   1.000
    C56     C    0.15514   0.62787   0.70489   1.000
    C57     C    0.14410   0.46061   0.75075   1.000
    C58     C    0.38470   0.38010   0.64359   1.000
    C59     C    0.39979   0.54862   0.60074   1.000
    C60     C    0.29291   0.13916   0.59082   1.000
    C61     C    0.24954   0.28678   0.62804   1.000
    C62     C    0.33138   0.14911   0.77232   1.000
    C63     C    0.37883   0.00272   0.73355   1.000
    C64     C    0.88029   0.15637   0.92854   1.000
    C65     C    0.91687   0.15922   0.83384   1.000
    C66     C    0.00081   0.44890   0.81287   1.000
    C67     C    0.95868   0.44681   0.90774   1.000
    C68     C    0.02126   0.18943   0.60666   1.000
    C69     C    0.96412   0.31326   0.66226   1.000
    C70     C    0.06633   0.13703   0.79119   1.000
    C71     C    0.12020   0.01354   0.73632   1.000
    C72     C    0.00000   0.81856   0.66082   1.000
    C73     C    0.82308   0.80865   0.65698   1.000
    C74     C    0.89535   0.88063   0.48926   1.000
    C75     C    0.06122   0.89141   0.50152   1.000
    C76     C    0.52806   0.77226   0.63992   1.000
    C77     C    0.69735   0.76405   0.64689   1.000
    C78     C    0.75205   0.91088   0.48775   1.000
    C79     C    0.58060   0.91013   0.48717   1.000
    C80     C    0.62938   0.15843   0.20504   1.000
    C81     C    0.46206   0.14605   0.25055   1.000
    C82     C    0.38050   0.38654   0.14342   1.000
    C83     C    0.54899   0.40273   0.10081   1.000
    C84     C    0.13963   0.29414   0.09044   1.000
    C85     C    0.28757   0.25147   0.12751   1.000
    C86     C    0.14961   0.33109   0.27215   1.000
    C87     C    0.00282   0.37797   0.23353   1.000
    C88     C    0.15565   0.88027   0.42779   1.000
    C89     C    0.16009   0.91670   0.33291   1.000
    C90     C    0.44926   0.00149   0.31349   1.000
    C91     C    0.44569   0.95924   0.40850   1.000
    C92     C    0.19146   0.02198   0.10621   1.000
    C93     C    0.31536   0.96491   0.16193   1.000
    C94     C    0.13874   0.06661   0.29071   1.000
    C95     C    0.01519   0.12029   0.23574   1.000
    C96     C    0.81754   0.00000   0.16087   1.000
    C97     C    0.80782   0.82599   0.15691   1.000
    C98     C    0.88130   0.89864   0.98930   1.000
    C99     C    0.89183   0.06438   0.00170   1.000
    C100    C    0.77357   0.53066   0.13970   1.000
    C101    C    0.76456   0.69984   0.14674   1.000
    C102    C    0.91099   0.75563   0.98762   1.000
    C103    C    0.91119   0.58424   0.98696   1.000
    C104    C    0.30038   0.71132   0.87739   1.000
    C105    C    0.40107   0.71954   0.85035   1.000
    C106    C    0.42569   0.79211   0.80812   1.000
    C107    C    0.51890   0.79919   0.78292   1.000
    C108    C    0.59013   0.73634   0.80074   1.000
    C109    C    0.56529   0.66391   0.84320   1.000
    C110    C    0.47120   0.65455   0.86712   1.000
    C111    C    0.02738   0.63396   0.86207   1.000
    C112    C    0.93780   0.66117   0.84029   1.000
    C113    C    0.85707   0.69590   0.87015   1.000
    C114    C    0.77417   0.71956   0.84930   1.000
    C115    C    0.77154   0.71081   0.79768   1.000
    C116    C    0.85282   0.67605   0.76778   1.000
    C117    C    0.93450   0.65036   0.78903   1.000
    C118    C    0.68861   0.74509   0.77173   1.000
    C119    C    0.69884   0.10489   0.51836   1.000
    C120    C    0.69969   0.08191   0.57558   1.000
    C121    C    0.78016   0.09249   0.59731   1.000
    C122    C    0.77777   0.07072   0.65087   1.000
    C123    C    0.69511   0.03592   0.68353   1.000
    C124    C    0.61490   0.02496   0.66138   1.000
    C125    C    0.61680   0.04844   0.60835   1.000
    C126    C    0.97415   0.88672   0.86708   1.000
    C127    C    0.90399   0.92556   0.83234   1.000
    C128    C    0.81958   0.97034   0.85304   1.000
    C129    C    0.75114   0.00190   0.82231   1.000
    C130    C    0.76499   0.00000   0.77001   1.000
    C131    C    0.85010   0.94586   0.74924   1.000
    C132    C    0.91919   0.91463   0.78005   1.000
    C133    C    0.68313   0.01592   0.74156   1.000
    C134    C    0.16981   0.02862   0.87630   1.000
    C135    C    0.17591   0.12382   0.87909   1.000
    C136    C    0.15819   0.15391   0.92773   1.000
    C137    C    0.13418   0.08439   0.97158   1.000
    C138    C    0.12839   0.99090   0.96534   1.000
    C139    C    0.19883   0.41642   0.89323   1.000
    C140    C    0.20310   0.32088   0.88991   1.000
    C141    C    0.16211   0.25516   0.93217   1.000
    C142    C    0.12234   0.29033   0.97776   1.000
    C143    C    0.12129   0.38707   0.97842   1.000
    C144    C    0.71525   0.30070   0.37759   1.000
    C145    C    0.72313   0.40144   0.35057   1.000
    C146    C    0.79552   0.42639   0.30833   1.000
    C147    C    0.80191   0.51958   0.28298   1.000
    C148    C    0.73858   0.59047   0.30071   1.000
    C149    C    0.66645   0.56532   0.34325   1.000
    C150    C    0.65774   0.47123   0.36729   1.000
    C151    C    0.63416   0.02710   0.36193   1.000
    C152    C    0.66137   0.93765   0.34013   1.000
    C153    C    0.69683   0.85713   0.36991   1.000
    C154    C    0.72091   0.77441   0.34903   1.000
    C155    C    0.71176   0.77171   0.29747   1.000
    C156    C    0.67622   0.85273   0.26766   1.000
    C157    C    0.65018   0.93427   0.28893   1.000
    C158    C    0.74631   0.68893   0.27153   1.000
    C159    C    0.10511   0.69660   0.01837   1.000
    C160    C    0.08231   0.69830   0.07551   1.000
    C161    C    0.09285   0.77935   0.09672   1.000
    C162    C    0.07125   0.77791   0.15019   1.000
    C163    C    0.03684   0.69556   0.18331   1.000
    C164    C    0.02584   0.61477   0.16168   1.000
    C165    C    0.04899   0.61581   0.10872   1.000
    C166    C    0.88704   0.97482   0.36664   1.000
    C167    C    0.92593   0.90489   0.33187   1.000
    C168    C    0.97114   0.82074   0.35262   1.000
    C169    C    0.00323   0.75250   0.32191   1.000
    C170    C    0.00000   0.76625   0.26959   1.000
    C171    C    0.94669   0.85111   0.24876   1.000
    C172    C    0.91505   0.92007   0.27955   1.000
    C173    C    0.01792   0.68435   0.24132   1.000
    C174    C    0.03174   0.16859   0.37633   1.000
    C175    C    0.12692   0.17501   0.37906   1.000
    C176    C    0.15707   0.15792   0.42771   1.000
    C177    C    0.08768   0.13418   0.47163   1.000
    C178    C    0.99415   0.12805   0.46546   1.000
    C179    C    0.41932   0.19966   0.39310   1.000
    C180    C    0.32376   0.20355   0.38979   1.000
    C181    C    0.25831   0.16225   0.43209   1.000
    C182    C    0.29371   0.12250   0.47764   1.000
    C183    C    0.39047   0.12184   0.47827   1.000
    C184    C    0.28486   0.69862   0.62239   1.000
    C185    C    0.27721   0.59793   0.64950   1.000
    C186    C    0.20487   0.57304   0.69178   1.000
    C187    C    0.19852   0.47989   0.71717   1.000
    C188    C    0.26180   0.40899   0.69942   1.000
    C189    C    0.33394   0.43408   0.65688   1.000
    C190    C    0.34265   0.52815   0.63282   1.000
    C191    C    0.36586   0.97258   0.63802   1.000
    C192    C    0.33862   0.06198   0.65986   1.000
    C193    C    0.30312   0.14252   0.63013   1.000
    C194    C    0.27909   0.22519   0.65107   1.000
    C195    C    0.28829   0.22778   0.70263   1.000
    C196    C    0.32382   0.14670   0.73240   1.000
    C197    C    0.34984   0.06524   0.71107   1.000
    C198    C    0.25388   0.31057   0.72858   1.000
    C199    C    0.89486   0.30292   0.98159   1.000
    C200    C    0.91769   0.30133   0.92443   1.000
    C201    C    0.90731   0.22029   0.90317   1.000
    C202    C    0.92919   0.22173   0.84971   1.000
    C203    C    0.96384   0.30405   0.81663   1.000
    C204    C    0.97453   0.38486   0.83831   1.000
    C205    C    0.95101   0.38387   0.89125   1.000
    C206    C    0.11286   0.02366   0.63367   1.000
    C207    C    0.07415   0.09407   0.66819   1.000
    C208    C    0.02911   0.17833   0.64743   1.000
    C209    C    0.99739   0.24673   0.67812   1.000
    C210    C    0.01004   0.23302   0.73042   1.000
    C211    C    0.05374   0.14801   0.75127   1.000
    C212    C    0.08511   0.07897   0.72050   1.000
    C213    C    0.98374   0.31515   0.75863   1.000
    C214    C    0.96823   0.83093   0.62370   1.000
    C215    C    0.87302   0.82469   0.62097   1.000
    C216    C    0.84289   0.84177   0.57232   1.000
    C217    C    0.91231   0.86536   0.52840   1.000
    C218    C    0.00586   0.87135   0.53457   1.000
    C219    C    0.58065   0.80006   0.60692   1.000
    C220    C    0.67620   0.79623   0.61023   1.000
    C221    C    0.74165   0.83750   0.56793   1.000
    C222    C    0.70626   0.87718   0.52236   1.000
    C223    C    0.60950   0.87778   0.52173   1.000
    C224    C    0.69961   0.28865   0.12255   1.000
    C225    C    0.59893   0.28043   0.14961   1.000
    C226    C    0.57432   0.20784   0.19183   1.000
    C227    C    0.48111   0.20076   0.21704   1.000
    C228    C    0.40987   0.26362   0.19923   1.000
    C229    C    0.43470   0.33606   0.15678   1.000
    C230    C    0.52879   0.34542   0.13285   1.000
    C231    C    0.97262   0.36598   0.13790   1.000
    C232    C    0.06220   0.33875   0.15968   1.000
    C233    C    0.14294   0.30402   0.12982   1.000
    C234    C    0.22583   0.28037   0.15067   1.000
    C235    C    0.22846   0.28912   0.20229   1.000
    C236    C    0.14718   0.32388   0.23219   1.000
    C237    C    0.06550   0.34955   0.21094   1.000
    C238    C    0.31139   0.25486   0.22825   1.000
    C239    C    0.30118   0.89490   0.48163   1.000
    C240    C    0.30031   0.91791   0.42442   1.000
    C241    C    0.21981   0.90735   0.40270   1.000
    C242    C    0.22216   0.92917   0.34916   1.000
    C243    C    0.30480   0.96401   0.31648   1.000
    C244    C    0.38503   0.97496   0.33862   1.000
    C245    C    0.38318   0.95142   0.39164   1.000
    C246    C    0.02579   0.11324   0.13292   1.000
    C247    C    0.09590   0.07437   0.16768   1.000
    C248    C    0.18031   0.02958   0.14699   1.000
    C249    C    0.24874   0.99802   0.17773   1.000
    C250    C    0.23486   0.01053   0.23003   1.000
    C251    C    0.14975   0.05405   0.25080   1.000
    C252    C    0.08068   0.08529   0.21997   1.000
    C253    C    0.31674   0.98402   0.25846   1.000
    C254    C    0.83025   0.97122   0.12372   1.000
    C255    C    0.82414   0.87602   0.12094   1.000
    C256    C    0.84175   0.84596   0.07229   1.000
    C257    C    0.86566   0.91550   0.02843   1.000
    C258    C    0.87146   0.00897   0.03468   1.000
    C259    C    0.80116   0.58344   0.10672   1.000
    C260    C    0.79688   0.67897   0.11008   1.000
    C261    C    0.83785   0.74472   0.06782   1.000
    C262    C    0.87762   0.70960   0.02222   1.000
    C263    C    0.87869   0.61286   0.02153   1.000
    C264    C    0.14613   0.96236   0.91866   1.000
    C265    C    0.15751   0.44990   0.93660   1.000
    C266    C    0.96558   0.14518   0.41876   1.000
    C267    C    0.45305   0.15840   0.43645   1.000
    C268    C    0.03442   0.85417   0.58127   1.000
    C269    C    0.54692   0.84123   0.56356   1.000
    C270    C    0.85384   0.03749   0.08136   1.000
    C271    C    0.84248   0.55000   0.06334   1.000
    C272    C    0.24757   0.78597   0.87402   1.000
    C273    C    0.27599   0.62949   0.90200   1.000
    C274    C    0.02858   0.65413   0.90845   1.000
    C275    C    0.09462   0.59237   0.83762   1.000
    C276    C    0.70259   0.78162   0.72525   1.000
    C277    C    0.77816   0.10688   0.48780   1.000
    C278    C    0.61734   0.11946   0.50482   1.000
    C279    C    0.95121   0.88033   0.91573   1.000
    C280    C    0.05721   0.86016   0.84594   1.000
    C281    C    0.60243   0.02069   0.76676   1.000
    C282    C    0.79011   0.24820   0.37454   1.000
    C283    C    0.63331   0.27598   0.40185   1.000
    C284    C    0.65448   0.02798   0.40830   1.000
    C285    C    0.59270   0.09452   0.33746   1.000
    C286    C    0.78211   0.70298   0.22495   1.000
    C287    C    0.10709   0.77575   0.98761   1.000
    C288    C    0.11948   0.61489   0.00513   1.000
    C289    C    0.88071   0.95169   0.41532   1.000
    C290    C    0.86066   0.05800   0.34564   1.000
    C291    C    0.02439   0.60402   0.26674   1.000
    C292    C    0.20973   0.75070   0.62515   1.000
    C293    C    0.36686   0.72367   0.59837   1.000
    C294    C    0.34552   0.97168   0.59167   1.000
    C295    C    0.40739   0.90522   0.66250   1.000
    C296    C    0.21798   0.29661   0.77514   1.000
    C297    C    0.89294   0.22372   0.01231   1.000
    C298    C    0.88046   0.38458   0.99488   1.000
    C299    C    0.11917   0.04596   0.58493   1.000
    C300    C    0.13926   0.94068   0.65489   1.000
    C301    C    0.97911   0.39560   0.73311   1.000
    C302    C    0.75240   0.21398   0.12586   1.000
    C303    C    0.72401   0.37050   0.09798   1.000
    C304    C    0.97142   0.34583   0.09151   1.000
    C305    C    0.90539   0.40757   0.16236   1.000
    C306    C    0.29741   0.21835   0.27474   1.000
    C307    C    0.22186   0.89295   0.51218   1.000
    C308    C    0.38268   0.88032   0.49517   1.000
    C309    C    0.04876   0.11963   0.08428   1.000
    C310    C    0.94272   0.13981   0.15405   1.000
    C311    C    0.39742   0.97929   0.23324   1.000
    O312    O    0.88165   0.03668   0.01819   1.000
    O313    O    0.11230   0.65575   0.01175   1.000
    O314    O    0.13213   0.60390   0.96839   1.000
    O315    O    0.12632   0.09283   0.99114   1.000
    O316    O    0.88697   0.19999   0.05092   1.000
    O317    O    0.89390   0.26332   0.99695   1.000
    O318    O    0.10565   0.26733   0.99506   1.000
    O319    O    0.10505   0.40140   0.99570   1.000
    O320    O    0.09371   0.69745   0.04694   1.000
    O321    O    0.10610   0.73617   0.00299   1.000
    O322    O    0.87815   0.66123   0.02188   1.000
    O323    O    0.86058   0.58143   0.04244   1.000
    O324    O    0.89494   0.59855   0.00425   1.000
    O325    O    0.85774   0.72716   0.04502   1.000
    O326    O    0.89431   0.73261   0.00492   1.000
    O327    O    0.86856   0.96224   0.03156   1.000
    O328    O    0.85371   0.88073   0.05036   1.000
    O329    O    0.87348   0.90707   0.00887   1.000
    O330    O    0.86265   0.02323   0.05802   1.000
    O331    O    0.84886   0.47850   0.06581   1.000
    O332    O    0.82182   0.56672   0.08503   1.000
    O333    O    0.83980   0.79534   0.07005   1.000
    O334    O    0.81736   0.71184   0.08895   1.000
    O335    O    0.91333   0.37642   0.07990   1.000
    O336    O    0.78962   0.38875   0.08313   1.000
    O337    O    0.86785   0.39579   0.03158   1.000
    O338    O    0.10633   0.81131   0.08402   1.000
    O339    O    0.83295   0.86099   0.09661   1.000
    O340    O    0.08758   0.73883   0.08611   1.000
    O341    O    0.06565   0.65705   0.09211   1.000
    O342    O    0.86742   0.10688   0.08544   1.000
    O343    O    0.84205   0.00435   0.10254   1.000
    O344    O    0.03728   0.11643   0.10860   1.000
    O345    O    0.81670   0.19512   0.10769   1.000
    O346    O    0.91186   0.15804   0.12179   1.000
    O347    O    0.14129   0.29908   0.11013   1.000
    O348    O    0.97202   0.35590   0.11471   1.000
    O349    O    0.04506   0.58435   0.10049   1.000
    O350    O    0.08205   0.77863   0.12346   1.000
    O351    O    0.71181   0.32958   0.11027   1.000
    O352    O    0.53889   0.37408   0.11683   1.000
    O353    O    0.18589   0.02578   0.12660   1.000
    O354    O    0.79902   0.63120   0.10840   1.000
    O355    O    0.78736   0.55705   0.12321   1.000
    O356    O    0.03742   0.61529   0.13520   1.000
    O357    O    0.78072   0.68940   0.12841   1.000
    O358    O    0.82720   0.92362   0.12233   1.000
    O359    O    0.81598   0.85100   0.13892   1.000
    O360    O    0.72600   0.25132   0.12420   1.000
    O361    O    0.64927   0.28454   0.13608   1.000
    O362    O    0.82390   0.98561   0.14229   1.000
    O363    O    0.25670   0.26592   0.13909   1.000
    O364    O    0.18439   0.29219   0.14024   1.000
    O365    O    0.10257   0.32139   0.14475   1.000
    O366    O    0.56386   0.31293   0.14123   1.000
    O367    O    0.48175   0.34074   0.14482   1.000
    O368    O    0.98426   0.12653   0.14349   1.000
    O369    O    0.06085   0.09380   0.15030   1.000
    O370    O    0.01741   0.35236   0.14879   1.000
    O371    O    0.93901   0.38677   0.15013   1.000
    O372    O    0.40760   0.36130   0.15010   1.000
    O373    O    0.13811   0.05198   0.15733   1.000
    O374    O    0.21452   0.01380   0.16236   1.000
    O375    O    0.58663   0.24413   0.17072   1.000
    O376    O    0.07748   0.80916   0.15812   1.000
    O377    O    0.05405   0.73674   0.16675   1.000
    O378    O    0.22714   0.28474   0.17648   1.000
    O379    O    0.42229   0.29984   0.17801   1.000
    O380    O    0.06385   0.34415   0.18531   1.000
    O381    O    0.03134   0.65517   0.17250   1.000
    O382    O    0.01292   0.58275   0.17442   1.000
    O383    O    0.28205   0.98146   0.16983   1.000
    O384    O    0.08829   0.07983   0.19383   1.000
    O385    O    0.24180   0.00427   0.20388   1.000
    O386    O    0.02738   0.68995   0.21232   1.000
    O387    O    0.60185   0.18313   0.19844   1.000
    O388    O    0.52772   0.20430   0.20444   1.000
    O389    O    0.44549   0.23219   0.20814   1.000
    O390    O    0.36063   0.25924   0.21374   1.000
    O391    O    0.26993   0.27199   0.21527   1.000
    O392    O    0.18782   0.30650   0.21724   1.000
    O393    O    0.94043   0.85658   0.22879   1.000
    O394    O    0.10634   0.33671   0.22157   1.000
    O395    O    0.03416   0.36376   0.22224   1.000
    O396    O    0.47159   0.17341   0.23379   1.000
    O397    O    0.04793   0.10279   0.22785   1.000
    O398    O    0.11521   0.06967   0.23538   1.000
    O399    O    0.76421   0.69595   0.24824   1.000
    O400    O    0.67246   0.85148   0.24770   1.000
    O401    O    0.30440   0.23660   0.25149   1.000
    O402    O    0.19231   0.03229   0.24041   1.000
    O403    O    0.27580   0.99728   0.24424   1.000
    O404    O    0.14840   0.32748   0.25217   1.000
    O405    O    0.35708   0.98165   0.24585   1.000
    O406    O    0.02116   0.64419   0.25403   1.000
    O407    O    0.00896   0.72530   0.25546   1.000
    O408    O    0.97334   0.80868   0.25918   1.000
    O409    O    0.93087   0.88559   0.26416   1.000
    O410    O    0.82913   0.52922   0.26619   1.000
    O411    O    0.14425   0.06033   0.27075   1.000
    O412    O    0.31077   0.97401   0.28747   1.000
    O413    O    0.89745   0.95275   0.27164   1.000
    O414    O    0.63569   0.96713   0.27766   1.000
    O415    O    0.66320   0.89350   0.27829   1.000
    O416    O    0.69399   0.81222   0.28256   1.000
    O417    O    0.00161   0.75938   0.29575   1.000
    O418    O    0.72904   0.73032   0.28450   1.000
    O419    O    0.74245   0.63970   0.28612   1.000
    O420    O    0.92049   0.91248   0.30571   1.000
    O421    O    0.77025   0.55503   0.29184   1.000
    O422    O    0.79872   0.47299   0.29566   1.000
    O423    O    0.65577   0.93596   0.31453   1.000
    O424    O    0.82038   0.39897   0.30177   1.000
    O425    O    0.71634   0.77306   0.32325   1.000
    O426    O    0.70252   0.57789   0.32198   1.000
    O427    O    0.75933   0.41392   0.32945   1.000
    O428    O    0.41715   0.98823   0.32606   1.000
    O429    O    0.34492   0.96948   0.32755   1.000
    O430    O    0.26348   0.94659   0.33282   1.000
    O431    O    0.01996   0.71929   0.32982   1.000
    O432    O    0.98718   0.78662   0.33726   1.000
    O433    O    0.94853   0.86281   0.34225   1.000
    O434    O    0.90648   0.93986   0.34926   1.000
    O435    O    0.19112   0.92294   0.34103   1.000
    O436    O    0.61343   0.06081   0.34970   1.000
    O437    O    0.38411   0.96319   0.36513   1.000
    O438    O    0.01902   0.17477   0.35777   1.000
    O439    O    0.64776   0.98237   0.35103   1.000
    O440    O    0.67910   0.89739   0.35502   1.000
    O441    O    0.15188   0.18309   0.36106   1.000
    O442    O    0.64106   0.59229   0.34990   1.000
    O443    O    0.66210   0.51827   0.35527   1.000
    O444    O    0.87385   0.01641   0.35614   1.000
    O445    O    0.84389   0.08848   0.37813   1.000
    O446    O    0.70887   0.81577   0.35947   1.000
    O447    O    0.73569   0.74365   0.36056   1.000
    O448    O    0.22098   0.91826   0.37593   1.000
    O449    O    0.69043   0.43633   0.35893   1.000
    O450    O    0.71919   0.35107   0.36408   1.000
    O451    O    0.98557   0.81521   0.37301   1.000
    O452    O    0.31319   0.21967   0.37147   1.000
    O453    O    0.44562   0.21355   0.37660   1.000
    O454    O    0.64432   0.02754   0.38511   1.000
    O455    O    0.88388   0.96325   0.39098   1.000
    O456    O    0.62917   0.46099   0.38333   1.000
    O457    O    0.70194   0.85885   0.38956   1.000
    O458    O    0.75268   0.27445   0.37606   1.000
    O459    O    0.80862   0.18358   0.39258   1.000
    O460    O    0.07933   0.17180   0.37769   1.000
    O461    O    0.99866   0.15689   0.39755   1.000
    O462    O    0.67428   0.28834   0.38972   1.000
    O463    O    0.14200   0.16646   0.40338   1.000
    O464    O    0.37154   0.20160   0.39145   1.000
    O465    O    0.29103   0.18290   0.41094   1.000
    O466    O    0.41443   0.95533   0.40007   1.000
    O467    O    0.34175   0.93467   0.40803   1.000
    O468    O    0.43619   0.17903   0.41477   1.000
    O469    O    0.61483   0.21047   0.41658   1.000
    O470    O    0.26006   0.91263   0.41356   1.000
    O471    O    0.18773   0.89381   0.41525   1.000
    O472    O    0.62542   0.08648   0.41980   1.000
    O473    O    0.89635   0.13207   0.41469   1.000
    O474    O    0.80265   0.11292   0.44921   1.000
    O475    O    0.97986   0.13662   0.44211   1.000
    O476    O    0.30074   0.90640   0.45302   1.000
    O477    O    0.20769   0.16008   0.42990   1.000
    O478    O    0.12238   0.14605   0.44967   1.000
    O479    O    0.52470   0.15168   0.43388   1.000
    O480    O    0.60685   0.13221   0.46806   1.000
    O481    O    0.27601   0.14237   0.45487   1.000
    O482    O    0.42176   0.14012   0.45736   1.000
    O483    O    0.04092   0.13111   0.46854   1.000
    O484    O    0.96648   0.11798   0.48198   1.000
    O485    O    0.09617   0.12652   0.49120   1.000
    O486    O    0.34209   0.12217   0.47796   1.000
    O487    O    0.27082   0.10562   0.49494   1.000
    O488    O    0.40492   0.10563   0.49554   1.000
    O489    O    0.34193   0.88761   0.48840   1.000
    O490    O    0.26152   0.89392   0.49691   1.000
    O491    O    0.59505   0.89395   0.50445   1.000
    O492    O    0.72915   0.89403   0.50506   1.000
    O493    O    0.73850   0.10589   0.50308   1.000
    O494    O    0.90383   0.87299   0.50883   1.000
    O495    O    0.39315   0.86745   0.53194   1.000
    O496    O    0.03354   0.88138   0.51804   1.000
    O497    O    0.65809   0.11218   0.51159   1.000
    O498    O    0.19736   0.88677   0.55079   1.000
    O499    O    0.69926   0.09340   0.54697   1.000
    O500    O    0.65788   0.87748   0.52204   1.000
    O501    O    0.57821   0.85951   0.54264   1.000
    O502    O    0.72396   0.85734   0.54514   1.000
    O503    O    0.95908   0.86836   0.53148   1.000
    O504    O    0.87760   0.85357   0.55036   1.000
    O505    O    0.02014   0.86276   0.55792   1.000
    O506    O    0.47527   0.84790   0.56613   1.000
    O507    O    0.56378   0.82064   0.58524   1.000
    O508    O    0.79227   0.83963   0.57012   1.000
    O509    O    0.70893   0.81686   0.58908   1.000
    O510    O    0.37457   0.91313   0.58019   1.000
    O511    O    0.38524   0.78912   0.58354   1.000
    O512    O    0.81225   0.10602   0.58477   1.000
    O513    O    0.85796   0.83323   0.59664   1.000
    O514    O    0.73992   0.08720   0.58645   1.000
    O515    O    0.65824   0.06517   0.59196   1.000
    O516    O    0.10364   0.86739   0.58533   1.000
    O517    O    0.00133   0.84255   0.60248   1.000
    O518    O    0.11602   0.03481   0.60930   1.000
    O519    O    0.19129   0.81565   0.60727   1.000
    O520    O    0.15606   0.91064   0.62214   1.000
    O521    O    0.29802   0.14084   0.61047   1.000
    O522    O    0.58555   0.04451   0.59992   1.000
    O523    O    0.35569   0.97213   0.61485   1.000
    O524    O    0.77897   0.08161   0.62409   1.000
    O525    O    0.32586   0.71115   0.61038   1.000
    O526    O    0.37122   0.53839   0.61678   1.000
    O527    O    0.02518   0.18388   0.62704   1.000
    O528    O    0.62842   0.79814   0.60857   1.000
    O529    O    0.55435   0.78616   0.62342   1.000
    O530    O    0.61585   0.03670   0.63486   1.000
    O531    O    0.68678   0.78014   0.62856   1.000
    O532    O    0.92063   0.82781   0.62233   1.000
    O533    O    0.84805   0.81667   0.63897   1.000
    O534    O    0.24730   0.72466   0.62377   1.000
    O535    O    0.28104   0.64828   0.63595   1.000
    O536    O    0.98412   0.82474   0.64226   1.000
    O537    O    0.26431   0.25598   0.63956   1.000
    O538    O    0.29111   0.18386   0.64060   1.000
    O539    O    0.32087   0.10225   0.64500   1.000
    O540    O    0.30993   0.56304   0.64116   1.000
    O541    O    0.33830   0.48112   0.64485   1.000
    O542    O    0.12606   0.98217   0.64428   1.000
    O543    O    0.09351   0.05887   0.65093   1.000
    O544    O    0.35224   0.01728   0.64894   1.000
    O545    O    0.38663   0.93890   0.65026   1.000
    O546    O    0.35932   0.40709   0.65024   1.000
    O547    O    0.05163   0.13620   0.65781   1.000
    O548    O    0.01325   0.21253   0.66277   1.000
    O549    O    0.24104   0.58549   0.67064   1.000
    O550    O    0.80880   0.07696   0.65899   1.000
    O551    O    0.73644   0.05332   0.66720   1.000
    O552    O    0.28369   0.22649   0.67685   1.000
    O553    O    0.29787   0.42154   0.67815   1.000
    O554    O    0.34423   0.06361   0.68547   1.000
    O555    O    0.65500   0.03044   0.67246   1.000
    O556    O    0.58277   0.01248   0.67394   1.000
    O557    O    0.98076   0.28000   0.67019   1.000
    O558    O    0.07963   0.08652   0.69434   1.000
    O559    O    0.00371   0.23987   0.70427   1.000
    O560    O    0.68912   0.02592   0.71255   1.000
    O561    O    0.18000   0.60046   0.69833   1.000
    O562    O    0.20170   0.52647   0.70447   1.000
    O563    O    0.23016   0.44444   0.70830   1.000
    O564    O    0.25784   0.35978   0.71400   1.000
    O565    O    0.27108   0.26917   0.71560   1.000
    O566    O    0.30606   0.18724   0.71752   1.000
    O567    O    0.85560   0.93958   0.72928   1.000
    O568    O    0.33683   0.10597   0.72174   1.000
    O569    O    0.36434   0.03398   0.72231   1.000
    O570    O    0.17131   0.47025   0.73396   1.000
    O571    O    0.10265   0.04625   0.72841   1.000
    O572    O    0.06943   0.11349   0.73588   1.000
    O573    O    0.69560   0.76336   0.74849   1.000
    O574    O    0.85160   0.67245   0.74780   1.000
    O575    O    0.23593   0.30359   0.75186   1.000
    O576    O    0.03189   0.19051   0.74084   1.000
    O577    O    0.99689   0.27409   0.74452   1.000
    O578    O    0.32760   0.14791   0.75236   1.000
    O579    O    0.98143   0.35538   0.74587   1.000
    O580    O    0.64278   0.01831   0.75416   1.000
    O581    O    0.72406   0.00796   0.75579   1.000
    O582    O    0.80755   0.97293   0.75962   1.000
    O583    O    0.88464   0.93025   0.76464   1.000
    O584    O    0.52842   0.82653   0.76617   1.000
    O585    O    0.06004   0.14252   0.77123   1.000
    O586    O    0.97379   0.30960   0.78763   1.000
    O587    O    0.95193   0.89713   0.77216   1.000
    O588    O    0.96725   0.63614   0.77773   1.000
    O589    O    0.89366   0.66320   0.77840   1.000
    O590    O    0.81218   0.69343   0.78273   1.000
    O591    O    0.75806   0.00095   0.79616   1.000
    O592    O    0.73008   0.72795   0.78471   1.000
    O593    O    0.63937   0.74071   0.78623   1.000
    O594    O    0.91159   0.92010   0.80620   1.000
    O595    O    0.55451   0.76776   0.79183   1.000
    O596    O    0.47229   0.79565   0.79552   1.000
    O597    O    0.93615   0.65576   0.81466   1.000
    O598    O    0.39816   0.81681   0.80151   1.000
    O599    O    0.77286   0.71518   0.82349   1.000
    O600    O    0.57771   0.70012   0.82197   1.000
    O601    O    0.41338   0.75582   0.82923   1.000
    O602    O    0.98767   0.41688   0.82559   1.000
    O603    O    0.96919   0.34446   0.82747   1.000
    O604    O    0.94652   0.26289   0.83317   1.000
    O605    O    0.71783   0.01845   0.83021   1.000
    O606    O    0.78536   0.98612   0.83768   1.000
    O607    O    0.86179   0.94795   0.84269   1.000
    O608    O    0.93907   0.90614   0.84971   1.000
    O609    O    0.92303   0.19048   0.84177   1.000
    O610    O    0.06100   0.61317   0.84984   1.000
    O611    O    0.96277   0.38436   0.86478   1.000
    O612    O    0.17621   0.01598   0.85774   1.000
    O613    O    0.98259   0.64756   0.85118   1.000
    O614    O    0.89744   0.67853   0.85522   1.000
    O615    O    0.18410   0.14882   0.86110   1.000
    O616    O    0.59239   0.63867   0.84989   1.000
    O617    O    0.51825   0.65923   0.85516   1.000
    O618    O    0.01568   0.87344   0.85651   1.000
    O619    O    0.08810   0.84189   0.87819   1.000
    O620    O    0.81562   0.70773   0.85973   1.000
    O621    O    0.74331   0.73401   0.86088   1.000
    O622    O    0.91825   0.22101   0.87644   1.000
    O623    O    0.43613   0.68704   0.85873   1.000
    O624    O    0.35072   0.71542   0.86387   1.000
    O625    O    0.81401   0.98517   0.87343   1.000
    O626    O    0.21926   0.31043   0.87158   1.000
    O627    O    0.21263   0.44280   0.87674   1.000
    O628    O    0.02798   0.64405   0.88526   1.000
    O629    O    0.96268   0.88352   0.89141   1.000
    O630    O    0.46110   0.62590   0.88315   1.000
    O631    O    0.85873   0.70085   0.88984   1.000
    O632    O    0.27397   0.74864   0.87571   1.000
    O633    O    0.18328   0.80480   0.89223   1.000
    O634    O    0.17286   0.07622   0.87770   1.000
    O635    O    0.15797   0.99549   0.89748   1.000
    O636    O    0.28818   0.67040   0.88970   1.000
    O637    O    0.16705   0.13886   0.90341   1.000
    O638    O    0.20096   0.36865   0.89157   1.000
    O639    O    0.18261   0.28802   0.91104   1.000
    O640    O    0.95485   0.41534   0.89950   1.000
    O641    O    0.93435   0.34260   0.90784   1.000
    O642    O    0.17817   0.43316   0.91492   1.000
    O643    O    0.21038   0.61120   0.91683   1.000
    O644    O    0.91250   0.26081   0.91380   1.000
    O645    O    0.89380   0.18833   0.91586   1.000
    O646    O    0.08668   0.62352   0.92005   1.000
    O647    O    0.13256   0.89299   0.91455   1.000
    O648    O    0.11305   0.79969   0.94902   1.000
    O649    O    0.13726   0.97663   0.94200   1.000
    O650    O    0.90627   0.30212   0.95301   1.000
    O651    O    0.16015   0.20453   0.92995   1.000
    O652    O    0.14619   0.11915   0.94965   1.000
    O653    O    0.15114   0.52141   0.93413   1.000
    O654    O    0.14223   0.27274   0.95497   1.000
    O655    O    0.13940   0.41849   0.95751   1.000
    O656    O    0.13129   0.03764   0.96846   1.000
    O657    O    0.11817   0.96321   0.98183   1.000
    O658    O    0.12182   0.33870   0.97809   1.000
    O659    O    0.88766   0.34375   0.98823   1.000
loop_
    _geom_bond_atom_site_label_1
    _geom_bond_atom_site_label_2
    _geom_bond_distance
    _geom_bond_site_symmetry_2
    _ccdc_geom_bond_type
    C99    O312      0.54396      .   S
    C258   O312      0.54396      .   S
    C288   O313      0.63725      .   S
    C159   O313      0.63725      .   S
    C288   O314      0.99816  1_554   S
    C1     O314      0.99816      .   S
    C26    O315      0.54452  1_554   S
    C137   O315      0.54452      .   S
    C297   O316      1.01266      .   S
    C6     O316      1.01266      .   S
    C297   O317      0.63848  1_554   S
    C199   O317      0.63848      .   S
    C30    O318      0.54471  1_554   S
    C142   O318      0.54471      .   S
    C31    O319      0.54443  1_554   S
    C143   O319      0.54443      .   S
    C159   O320      0.74944      .   S
    C160   O320      0.74944      .   S
    C159   O321      0.63843      .   S
    C287   O321      0.63843  1_556   S
    C263   O322      0.69447      .   S
    C262   O322      0.69447      .   S
    C263   O323      0.67603      .   S
    C271   O323      0.67603      .   S
    C263   O324      0.54443      .   S
    C103   O324      0.54443  1_556   S
    C262   O325      0.70342      .   S
    C261   O325      0.70342      .   S
    C262   O326      0.54471      .   S
    C102   O326      0.54471  1_556   S
    C257   O327      0.69373      .   S
    C258   O327      0.69373  1_545   S
    C257   O328      0.70190      .   S
    C256   O328      0.70190      .   S
    C257   O329      0.54454      .   S
    C98    O329      0.54454  1_556   S
    C258   O330      0.67428      .   S
    C270   O330      0.67428      .   S
    C271   O331      1.01487      .   S
    C7     O331      1.01487      .   S
    C271   O332      0.67563      .   S
    C259   O332      0.67563      .   S
    C261   O333      0.74074      .   S
    C256   O333      0.74074      .   S
    C261   O334      0.70164      .   S
    C260   O334      0.70164      .   S
    C7     O335      0.98764      .   S
    C304   O335      0.98764      .   S
    C7     O336      0.98805      .   S
    C303   O336      0.98805      .   S
    C7     O337      0.99827      .   S
    C298   O337      0.99827  1_556   S
    C40    O338      0.54428      .   S
    C161   O338      0.54428      .   S
    C256   O339      0.70382      .   S
    C255   O339      0.70382      .   S
    C160   O340      0.70109      .   S
    C161   O340      0.70109      .   S
    C160   O341      0.70185      .   S
    C165   O341      0.70185      .   S
    C270   O342      1.05253      .   S
    C6     O342      1.05253      .   S
    C270   O343      0.67483      .   S
    C254   O343      0.67483  1_565   S
    C309   O344      0.63238      .   S
    C246   O344      0.63238      .   S
    C6     O345      1.00778      .   S
    C302   O345      1.00778      .   S
    C6     O346      1.01697      .   S
    C310   O346      1.01697      .   S
    C84    O347      0.54365      .   S
    C233   O347      0.54365      .   S
    C304   O348      0.65730      .   S
    C231   O348      0.65730      .   S
    C43    O349      0.54368      .   S
    C165   O349      0.54368      .   S
    C161   O350      0.69791      .   S
    C162   O350      0.69791      .   S
    C303   O351      0.63905      .   S
    C224   O351      0.63905      .   S
    C83    O352      0.54454      .   S
    C230   O352      0.54454      .   S
    C92    O353      0.54472      .   S
    C248   O353      0.54472      .   S
    C259   O354      0.69211      .   S
    C260   O354      0.69211      .   S
    C259   O355      0.54424      .   S
    C100   O355      0.54424      .   S
    C165   O356      0.69245      .   S
    C164   O356      0.69245      .   S
    C260   O357      0.54285      .   S
    C101   O357      0.54285      .   S
    C255   O358      0.69415      .   S
    C254   O358      0.69415      .   S
    C255   O359      0.54502      .   S
    C97    O359      0.54502      .   S
    C224   O360      0.63513      .   S
    C302   O360      0.63513      .   S
    C224   O361      0.74971      .   S
    C225   O361      0.74971      .   S
    C254   O362      0.55755      .   S
    C96    O362      0.55755  1_545   S
    C85    O363      0.54476      .   S
    C234   O363      0.54476      .   S
    C233   O364      0.69675      .   S
    C234   O364      0.69675      .   S
    C233   O365      0.70054      .   S
    C232   O365      0.70054      .   S
    C230   O366      0.70142      .   S
    C225   O366      0.70142      .   S
    C230   O367      0.69622      .   S
    C229   O367      0.69622      .   S
    C246   O368      0.64497  1_455   S
    C310   O368      0.64497      .   S
    C246   O369      0.74830      .   S
    C247   O369      0.74830      .   S
    C231   O370      0.74952  1_655   S
    C232   O370      0.74952      .   S
    C231   O371      0.62275      .   S
    C305   O371      0.62275      .   S
    C82    O372      0.54485      .   S
    C229   O372      0.54485      .   S
    C248   O373      0.70222      .   S
    C247   O373      0.70222      .   S
    C248   O374      0.69324      .   S
    C249   O374      0.69324  1_565   S
    C225   O375      0.70185      .   S
    C226   O375      0.70185      .   S
    C162   O376      0.54476      .   S
    C41    O376      0.54476      .   S
    C162   O377      0.70286      .   S
    C163   O377      0.70286      .   S
    C234   O378      0.70174      .   S
    C235   O378      0.70174      .   S
    C229   O379      0.70341      .   S
    C228   O379      0.70341      .   S
    C232   O380      0.70202      .   S
    C237   O380      0.70202      .   S
    C164   O381      0.70322      .   S
    C163   O381      0.70322      .   S
    C164   O382      0.54307      .   S
    C42    O382      0.54307      .   S
    C93    O383      0.54465      .   S
    C249   O383      0.54465      .   S
    C247   O384      0.70055      .   S
    C252   O384      0.70055      .   S
    C249   O385      0.70413  1_565   S
    C250   O385      0.70413      .   S
    C163   O386      0.74906      .   S
    C173   O386      0.74906      .   S
    C226   O387      0.54435      .   S
    C80    O387      0.54435      .   S
    C226   O388      0.69448      .   S
    C227   O388      0.69448      .   S
    C228   O389      0.70344      .   S
    C227   O389      0.70344      .   S
    C228   O390      0.74441      .   S
    C238   O390      0.74441      .   S
    C235   O391      0.74467      .   S
    C238   O391      0.74467      .   S
    C235   O392      0.70360      .   S
    C236   O392      0.70360      .   S
    C46    O393      0.54395      .   S
    C171   O393      0.54395      .   S
    C237   O394      0.69344      .   S
    C236   O394      0.69344      .   S
    C237   O395      0.54438      .   S
    C87    O395      0.54438      .   S
    C227   O396      0.54378      .   S
    C81    O396      0.54378      .   S
    C252   O397      0.54445      .   S
    C95    O397      0.54445      .   S
    C252   O398      0.69717      .   S
    C251   O398      0.69717      .   S
    C286   O399      0.62055      .   S
    C158   O399      0.62055      .   S
    C38    O400      0.54468      .   S
    C156   O400      0.54468      .   S
    C238   O401      0.62064      .   S
    C306   O401      0.62064      .   S
    C250   O402      0.70220      .   S
    C251   O402      0.70220      .   S
    C250   O403      0.74807  1_545   S
    C253   O403      0.74807      .   S
    C236   O404      0.54468      .   S
    C86    O404      0.54468      .   S
    C311   O405      0.61837      .   S
    C253   O405      0.61837      .   S
    C173   O406      0.61825      .   S
    C291   O406      0.61825      .   S
    C173   O407      0.74273      .   S
    C170   O407      0.74273      .   S
    C171   O408      0.73547      .   S
    C170   O408      0.73547  1_455   S
    C171   O409      0.69730      .   S
    C172   O409      0.69730      .   S
    C33    O410      0.54377      .   S
    C147   O410      0.54377      .   S
    C251   O411      0.54391      .   S
    C94    O411      0.54391      .   S
    C253   O412      0.74910      .   S
    C243   O412      0.74910      .   S
    C47    O413      0.54446      .   S
    C172   O413      0.54446      .   S
    C39    O414      0.56099  1_545   S
    C157   O414      0.56099      .   S
    C156   O415      0.69351      .   S
    C157   O415      0.69351      .   S
    C156   O416      0.70360      .   S
    C155   O416      0.70360      .   S
    C170   O417      0.68799      .   S
    C169   O417      0.68799      .   S
    C158   O418      0.74449      .   S
    C155   O418      0.74449      .   S
    C158   O419      0.74443      .   S
    C148   O419      0.74443      .   S
    C172   O420      0.70059      .   S
    C167   O420      0.70059      .   S
    C147   O421      0.70342      .   S
    C148   O421      0.70342      .   S
    C147   O422      0.69451      .   S
    C146   O422      0.69451      .   S
    C157   O423      0.70202      .   S
    C152   O423      0.70202      .   S
    C32    O424      0.54436      .   S
    C146   O424      0.54436      .   S
    C155   O425      0.70170      .   S
    C154   O425      0.70170      .   S
    C148   O426      0.70336      .   S
    C149   O426      0.70336      .   S
    C146   O427      0.70177      .   S
    C145   O427      0.70177      .   S
    C90    O428      0.54375  1_545   S
    C244   O428      0.54375      .   S
    C243   O429      0.70318      .   S
    C244   O429      0.70318      .   S
    C243   O430      0.70297      .   S
    C242   O430      0.70297      .   S
    C169   O431      0.54462      .   S
    C45    O431      0.54462      .   S
    C169   O432      0.69310  1_455   S
    C168   O432      0.69310      .   S
    C167   O433      0.70216      .   S
    C168   O433      0.70216      .   S
    C167   O434      0.74810      .   S
    C166   O434      0.74810      .   S
    C89    O435      0.54473      .   S
    C242   O435      0.54473      .   S
    C285   O436      0.62284      .   S
    C151   O436      0.62284      .   S
    C244   O437      0.69238      .   S
    C245   O437      0.69238      .   S
    C48    O438      0.54516      .   S
    C174   O438      0.54516      .   S
    C152   O439      0.74937      .   S
    C151   O439      0.74937  1_545   S
    C152   O440      0.70056      .   S
    C153   O440      0.70056      .   S
    C49    O441      0.54502      .   S
    C175   O441      0.54502      .   S
    C149   O442      0.54481      .   S
    C34    O442      0.54481      .   S
    C149   O443      0.69611      .   S
    C150   O443      0.69611      .   S
    C290   O444      0.64436      .   S
    C166   O444      0.64436  1_565   S
    C290   O445      1.01832      .   S
    C2     O445      1.01832      .   S
    C154   O446      0.69664      .   S
    C153   O446      0.69664      .   S
    C154   O447      0.54474      .   S
    C37    O447      0.54474      .   S
    C242   O448      0.69793      .   S
    C241   O448      0.69793      .   S
    C145   O449      0.70136      .   S
    C150   O449      0.70136      .   S
    C145   O450      0.74955      .   S
    C144   O450      0.74955      .   S
    C168   O451      0.60266      .   S
    C44    O451      0.60266  1_455   S
    C53    O452      0.54295      .   S
    C180   O452      0.54295      .   S
    C52    O453      0.54422      .   S
    C179   O453      0.54422      .   S
    C151   O454      0.65692      .   S
    C284   O454      0.65692      .   S
    C166   O455      0.63272      .   S
    C289   O455      0.63272      .   S
    C150   O456      0.54453      .   S
    C35    O456      0.54453      .   S
    C153   O457      0.54362      .   S
    C36    O457      0.54362      .   S
    C282   O458      0.63503      .   S
    C144   O458      0.63503      .   S
    C282   O459      1.00835      .   S
    C2     O459      1.00835      .   S
    C174   O460      0.69400      .   S
    C175   O460      0.69400      .   S
    C174   O461      0.67500  1_455   S
    C266   O461      0.67500      .   S
    C144   O462      0.63901      .   S
    C283   O462      0.63901      .   S
    C175   O463      0.70375      .   S
    C176   O463      0.70375      .   S
    C180   O464      0.69213      .   S
    C179   O464      0.69213      .   S
    C180   O465      0.70169      .   S
    C181   O465      0.70169      .   S
    C245   O466      0.54372      .   S
    C91    O466      0.54372      .   S
    C245   O467      0.70194      .   S
    C240   O467      0.70194      .   S
    C179   O468      0.67554      .   S
    C267   O468      0.67554      .   S
    C283   O469      0.98682      .   S
    C3     O469      0.98682      .   S
    C241   O470      0.70100      .   S
    C240   O470      0.70100      .   S
    C241   O471      0.54435      .   S
    C88    O471      0.54435      .   S
    C284   O472      0.98494      .   S
    C3     O472      0.98494      .   S
    C2     O473      1.04813      .   S
    C266   O473      1.04813      .   S
    C2     O474      1.01427      .   S
    C277   O474      1.01427      .   S
    C266   O475      0.67432      .   S
    C178   O475      0.67432      .   S
    C240   O476      0.74933      .   S
    C239   O476      0.74933      .   S
    C176   O477      0.74059      .   S
    C181   O477      0.74059      .   S
    C176   O478      0.70191      .   S
    C177   O478      0.70191      .   S
    C3     O479      1.01688      .   S
    C267   O479      1.01688      .   S
    C3     O480      0.99603      .   S
    C278   O480      0.99603      .   S
    C181   O481      0.70332      .   S
    C182   O481      0.70332      .   S
    C267   O482      0.67594      .   S
    C183   O482      0.67594      .   S
    C178   O483      0.69395  1_655   S
    C177   O483      0.69395      .   S
    C178   O484      0.54405      .   S
    C51    O484      0.54405      .   S
    C177   O485      0.54469      .   S
    C50    O485      0.54469      .   S
    C182   O486      0.69449      .   S
    C183   O486      0.69449      .   S
    C182   O487      0.54478      .   S
    C54    O487      0.54478      .   S
    C183   O488      0.54459      .   S
    C55    O488      0.54459      .   S
    C239   O489      0.63718      .   S
    C308   O489      0.63718      .   S
    C239   O490      0.63837      .   S
    C307   O490      0.63837      .   S
    C79    O491      0.54459      .   S
    C223   O491      0.54459      .   S
    C78    O492      0.54480      .   S
    C222   O492      0.54480      .   S
    C277   O493      0.63847      .   S
    C119   O493      0.63847      .   S
    C74    O494      0.54464      .   S
    C217   O494      0.54464      .   S
    C308   O495      0.99614      .   S
    C5     O495      0.99614      .   S
    C75    O496      0.54406      .   S
    C218   O496      0.54406      .   S
    C278   O497      0.63713      .   S
    C119   O497      0.63713      .   S
    C307   O498      1.01453      .   S
    C4     O498      1.01453      .   S
    C119   O499      0.74938      .   S
    C120   O499      0.74938      .   S
    C223   O500      0.69449      .   S
    C222   O500      0.69449      .   S
    C223   O501      0.67594      .   S
    C269   O501      0.67594      .   S
    C222   O502      0.70334      .   S
    C221   O502      0.70334      .   S
    C217   O503      0.69395      .   S
    C218   O503      0.69395  1_455   S
    C217   O504      0.70187      .   S
    C216   O504      0.70187      .   S
    C218   O505      0.67428      .   S
    C268   O505      0.67428      .   S
    C269   O506      1.01683      .   S
    C5     O506      1.01683      .   S
    C269   O507      0.67553      .   S
    C219   O507      0.67553      .   S
    C221   O508      0.74056      .   S
    C216   O508      0.74056      .   S
    C221   O509      0.70167      .   S
    C220   O509      0.70167      .   S
    C5     O510      0.98548      .   S
    C294   O510      0.98548      .   S
    C5     O511      0.98627      .   S
    C293   O511      0.98627      .   S
    C16    O512      0.54435      .   S
    C121   O512      0.54435      .   S
    C216   O513      0.70374      .   S
    C215   O513      0.70374      .   S
    C120   O514      0.70100      .   S
    C121   O514      0.70100      .   S
    C120   O515      0.70197      .   S
    C125   O515      0.70197      .   S
    C268   O516      1.04831      .   S
    C4     O516      1.04831      .   S
    C268   O517      0.67496      .   S
    C214   O517      0.67496  1_655   S
    C299   O518      0.63311      .   S
    C206   O518      0.63311      .   S
    C4     O519      1.01042      .   S
    C292   O519      1.01042      .   S
    C4     O520      1.02096      .   S
    C300   O520      1.02096      .   S
    C60    O521      0.54365      .   S
    C193   O521      0.54365      .   S
    C19    O522      0.54371      .   S
    C125   O522      0.54371      .   S
    C294   O523      0.65688      .   S
    C191   O523      0.65688      .   S
    C121   O524      0.69795      .   S
    C122   O524      0.69795      .   S
    C293   O525      0.63908      .   S
    C184   O525      0.63908      .   S
    C59    O526      0.54452      .   S
    C190   O526      0.54452      .   S
    C68    O527      0.54482      .   S
    C208   O527      0.54482      .   S
    C219   O528      0.69211      .   S
    C220   O528      0.69211      .   S
    C219   O529      0.54422      .   S
    C76    O529      0.54422      .   S
    C125   O530      0.69240      .   S
    C124   O530      0.69240      .   S
    C220   O531      0.54293      .   S
    C77    O531      0.54293      .   S
    C215   O532      0.69399      .   S
    C214   O532      0.69399      .   S
    C215   O533      0.54500      .   S
    C73    O533      0.54500      .   S
    C184   O534      0.63488      .   S
    C292   O534      0.63488      .   S
    C184   O535      0.74951      .   S
    C185   O535      0.74951      .   S
    C214   O536      0.56828      .   S
    C72    O536      0.56828  1_455   S
    C61    O537      0.54473      .   S
    C194   O537      0.54473      .   S
    C193   O538      0.69662      .   S
    C194   O538      0.69662      .   S
    C193   O539      0.70049      .   S
    C192   O539      0.70049      .   S
    C190   O540      0.70135      .   S
    C185   O540      0.70135      .   S
    C190   O541      0.69611      .   S
    C189   O541      0.69611      .   S
    C206   O542      0.64415  1_545   S
    C300   O542      0.64415      .   S
    C206   O543      0.74815      .   S
    C207   O543      0.74815      .   S
    C191   O544      0.74924  1_565   S
    C192   O544      0.74924      .   S
    C191   O545      0.62280      .   S
    C295   O545      0.62280      .   S
    C58    O546      0.54482      .   S
    C189   O546      0.54482      .   S
    C208   O547      0.70224      .   S
    C207   O547      0.70224      .   S
    C208   O548      0.69336      .   S
    C209   O548      0.69336  1_655   S
    C185   O549      0.70176      .   S
    C186   O549      0.70176      .   S
    C122   O550      0.54473      .   S
    C17    O550      0.54473      .   S
    C122   O551      0.70298      .   S
    C123   O551      0.70298      .   S
    C194   O552      0.70171      .   S
    C195   O552      0.70171      .   S
    C189   O553      0.70332      .   S
    C188   O553      0.70332      .   S
    C192   O554      0.70198      .   S
    C197   O554      0.70198      .   S
    C124   O555      0.70318      .   S
    C123   O555      0.70318      .   S
    C124   O556      0.54058      .   S
    C18    O556      0.54058      .   S
    C69    O557      0.54466      .   S
    C209   O557      0.54466      .   S
    C207   O558      0.70063      .   S
    C212   O558      0.70063      .   S
    C209   O559      0.70425  1_655   S
    C210   O559      0.70425      .   S
    C123   O560      0.74916      .   S
    C133   O560      0.74916      .   S
    C186   O561      0.54435      .   S
    C56    O561      0.54435      .   S
    C186   O562      0.69440      .   S
    C187   O562      0.69440      .   S
    C188   O563      0.70337      .   S
    C187   O563      0.70337      .   S
    C188   O564      0.74414      .   S
    C198   O564      0.74414      .   S
    C195   O565      0.74445      .   S
    C198   O565      0.74445      .   S
    C195   O566      0.70357      .   S
    C196   O566      0.70357      .   S
    C22    O567      0.54392      .   S
    C131   O567      0.54392      .   S
    C197   O568      0.69348      .   S
    C196   O568      0.69348      .   S
    C197   O569      0.54421      .   S
    C63    O569      0.54421      .   S
    C187   O570      0.54372      .   S
    C57    O570      0.54372      .   S
    C212   O571      0.54443      .   S
    C71    O571      0.54443      .   S
    C212   O572      0.69720      .   S
    C211   O572      0.69720      .   S
    C276   O573      0.62062      .   S
    C118   O573      0.62062      .   S
    C14    O574      0.54469      .   S
    C116   O574      0.54469      .   S
    C198   O575      0.62054      .   S
    C296   O575      0.62054      .   S
    C210   O576      0.70226      .   S
    C211   O576      0.70226      .   S
    C210   O577      0.74828  1_455   S
    C213   O577      0.74828      .   S
    C196   O578      0.54468      .   S
    C62    O578      0.54468      .   S
    C301   O579      0.61823      .   S
    C213   O579      0.61823      .   S
    C133   O580      0.61838      .   S
    C281   O580      0.61838      .   S
    C133   O581      0.74301      .   S
    C130   O581      0.74301      .   S
    C131   O582      0.74007      .   S
    C130   O582      0.74007  1_545   S
    C131   O583      0.69716      .   S
    C132   O583      0.69716      .   S
    C9     O584      0.54378      .   S
    C107   O584      0.54378      .   S
    C211   O585      0.54393      .   S
    C70    O585      0.54393      .   S
    C213   O586      0.74917      .   S
    C203   O586      0.74917      .   S
    C23    O587      0.54445      .   S
    C132   O587      0.54445      .   S
    C15    O588      0.55889  1_455   S
    C117   O588      0.55889      .   S
    C116   O589      0.69346      .   S
    C117   O589      0.69346      .   S
    C116   O590      0.70360      .   S
    C115   O590      0.70360      .   S
    C130   O591      0.68609      .   S
    C129   O591      0.68609      .   S
    C118   O592      0.74467      .   S
    C115   O592      0.74467      .   S
    C118   O593      0.74440      .   S
    C108   O593      0.74440      .   S
    C132   O594      0.70055      .   S
    C127   O594      0.70055      .   S
    C107   O595      0.70344      .   S
    C108   O595      0.70344      .   S
    C107   O596      0.69446      .   S
    C106   O596      0.69446      .   S
    C117   O597      0.70203      .   S
    C112   O597      0.70203      .   S
    C8     O598      0.54435      .   S
    C106   O598      0.54435      .   S
    C115   O599      0.70174      .   S
    C114   O599      0.70174      .   S
    C108   O600      0.70341      .   S
    C109   O600      0.70341      .   S
    C106   O601      0.70184      .   S
    C105   O601      0.70184      .   S
    C66    O602      0.54373  1_455   S
    C204   O602      0.54373      .   S
    C203   O603      0.70328      .   S
    C204   O603      0.70328      .   S
    C203   O604      0.70290      .   S
    C202   O604      0.70290      .   S
    C129   O605      0.54466      .   S
    C21    O605      0.54466      .   S
    C129   O606      0.69328  1_545   S
    C128   O606      0.69328      .   S
    C127   O607      0.70223      .   S
    C128   O607      0.70223      .   S
    C127   O608      0.74836      .   S
    C126   O608      0.74836      .   S
    C65    O609      0.54475      .   S
    C202   O609      0.54475      .   S
    C275   O610      0.62276      .   S
    C111   O610      0.62276      .   S
    C204   O611      0.69247      .   S
    C205   O611      0.69247      .   S
    C24    O612      0.54503      .   S
    C134   O612      0.54503      .   S
    C112   O613      0.74951      .   S
    C111   O613      0.74951  1_455   S
    C112   O614      0.70054      .   S
    C113   O614      0.70054      .   S
    C25    O615      0.54502      .   S
    C135   O615      0.54502      .   S
    C109   O616      0.54484      .   S
    C10    O616      0.54484      .   S
    C109   O617      0.69622      .   S
    C110   O617      0.69622      .   S
    C280   O618      0.64498      .   S
    C126   O618      0.64498  1_655   S
    C280   O619      1.01698      .   S
    C0     O619      1.01698      .   S
    C114   O620      0.69675      .   S
    C113   O620      0.69675      .   S
    C114   O621      0.54474      .   S
    C13    O621      0.54474      .   S
    C202   O622      0.69794      .   S
    C201   O622      0.69794      .   S
    C105   O623      0.70142      .   S
    C110   O623      0.70142      .   S
    C105   O624      0.74969      .   S
    C104   O624      0.74969      .   S
    C128   O625      0.60567      .   S
    C20    O625      0.60567  1_545   S
    C29    O626      0.54284      .   S
    C140   O626      0.54284      .   S
    C28    O627      0.54424      .   S
    C139   O627      0.54424      .   S
    C111   O628      0.65730      .   S
    C274   O628      0.65730      .   S
    C126   O629      0.63238      .   S
    C279   O629      0.63238      .   S
    C110   O630      0.54454      .   S
    C11    O630      0.54454      .   S
    C113   O631      0.54364      .   S
    C12    O631      0.54364      .   S
    C272   O632      0.63514      .   S
    C104   O632      0.63514      .   S
    C272   O633      1.00789      .   S
    C0     O633      1.00789      .   S
    C134   O634      0.69413      .   S
    C135   O634      0.69413      .   S
    C134   O635      0.67484  1_545   S
    C264   O635      0.67484      .   S
    C104   O636      0.63906      .   S
    C273   O636      0.63906      .   S
    C135   O637      0.70382      .   S
    C136   O637      0.70382      .   S
    C140   O638      0.69211      .   S
    C139   O638      0.69211      .   S
    C140   O639      0.70166      .   S
    C141   O639      0.70166      .   S
    C205   O640      0.54370      .   S
    C67    O640      0.54370      .   S
    C205   O641      0.70187      .   S
    C200   O641      0.70187      .   S
    C139   O642      0.67560      .   S
    C265   O642      0.67560      .   S
    C273   O643      0.98801      .   S
    C1     O643      0.98801      .   S
    C201   O644      0.70110      .   S
    C200   O644      0.70110      .   S
    C201   O645      0.54429      .   S
    C64    O645      0.54429      .   S
    C274   O646      0.98770      .   S
    C1     O646      0.98770      .   S
    C0     O647      1.05243      .   S
    C264   O647      1.05243      .   S
    C0     O648      1.01262      .   S
    C287   O648      1.01262      .   S
    C264   O649      0.67429      .   S
    C138   O649      0.67429      .   S
    C200   O650      0.74954      .   S
    C199   O650      0.74954      .   S
    C136   O651      0.74077      .   S
    C141   O651      0.74077      .   S
    C136   O652      0.70193      .   S
    C137   O652      0.70193      .   S
    C1     O653      1.01493      .   S
    C265   O653      1.01493      .   S
    C141   O654      0.70343      .   S
    C142   O654      0.70343      .   S
    C265   O655      0.67604      .   S
    C143   O655      0.67604      .   S
    C138   O656      0.69376  1_565   S
    C137   O656      0.69376      .   S
    C138   O657      0.54397      .   S
    C27    O657      0.54397      .   S
    C142   O658      0.69448      .   S
    C143   O658      0.69448      .   S
    C199   O659      0.63719      .   S
    C298   O659      0.63719      .   S
