# CIF file generated by openbabel 2.4.90, see http://openbabel.sf.net
data_I
_chemical_name_common 'VESTA_phase_1'
_cell_length_a 13.219
_cell_length_b 14.33
_cell_length_c 14.337
_cell_angle_alpha 77.767
_cell_angle_beta 62.589
_cell_angle_gamma 62.647
_space_group_name_H-M_alt 'P 1'
_space_group_name_Hall 'P 1'
loop_
    _symmetry_equiv_pos_as_xyz
    x,y,z
loop_
    _atom_site_label
    _atom_site_type_symbol
    _atom_site_fract_x
    _atom_site_fract_y
    _atom_site_fract_z
    _atom_site_occupancy
    Cu0     Cu   0.39293   0.24978   0.71464   1.000
    Cu1     Cu   0.85701   0.25001   0.78555   1.000
    Cu2     Cu   0.60697   0.28551   0.75000   1.000
    Cu3     Cu   0.14297   0.21461   0.74996   1.000
    Cu4     Cu   0.60708   0.75019   0.28530   1.000
    Cu5     Cu   0.14295   0.75003   0.21445   1.000
    Cu6     Cu   0.39306   0.71449   0.24987   1.000
    Cu7     Cu   0.85697   0.78541   0.25010   1.000
    H8      H    0.36302   0.33439   0.48799   1.000
    H9      H    0.25492   0.37671   0.61785   1.000
    H10     H    0.68594   0.16538   0.01223   1.000
    H11     H    0.74956   0.12305   0.88239   1.000
    H12     H    0.35136   0.51193   0.83434   1.000
    H13     H    0.37274   0.38205   0.87675   1.000
    H14     H    0.19793   0.98767   0.66531   1.000
    H15     H    0.13217   0.11750   0.62287   1.000
    H16     H    0.31405   0.98800   0.83441   1.000
    H17     H    0.25049   0.11784   0.87670   1.000
    H18     H    0.63695   0.51217   0.66500   1.000
    H19     H    0.74502   0.38233   0.62301   1.000
    H20     H    0.80179   0.33476   0.01236   1.000
    H21     H    0.86778   0.37715   0.88249   1.000
    H22     H    0.64879   0.16566   0.48810   1.000
    H23     H    0.62723   0.12325   0.61798   1.000
    H24     H    0.63697   0.66558   0.51201   1.000
    H25     H    0.74508   0.62327   0.38215   1.000
    H26     H    0.31403   0.83462   0.98774   1.000
    H27     H    0.25043   0.87692   0.11760   1.000
    H28     H    0.64861   0.48810   0.16565   1.000
    H29     H    0.62725   0.61798   0.12320   1.000
    H30     H    0.80200   0.01235   0.33475   1.000
    H31     H    0.86779   0.88250   0.37715   1.000
    H32     H    0.68590   0.01202   0.16560   1.000
    H33     H    0.74946   0.88218   0.12329   1.000
    H34     H    0.36305   0.48780   0.33460   1.000
    H35     H    0.25500   0.61764   0.37698   1.000
    H36     H    0.19817   0.66526   0.98760   1.000
    H37     H    0.13220   0.62286   0.11751   1.000
    H38     H    0.35117   0.83432   0.51198   1.000
    H39     H    0.37273   0.87671   0.38209   1.000
    H40     H    0.17100   0.48335   0.48369   1.000
    H41     H    0.17428   0.56104   0.56132   1.000
    H42     H    0.63811   0.01632   0.01665   1.000
    H43     H    0.79629   0.93871   0.93890   1.000
    H44     H    0.15490   0.51610   0.98327   1.000
    H45     H    0.23549   0.43850   0.06104   1.000
    H46     H    0.15486   0.98320   0.51617   1.000
    H47     H    0.23558   0.06097   0.43853   1.000
    H48     H    0.36186   0.98368   0.98335   1.000
    H49     H    0.20367   0.06128   0.06107   1.000
    H50     H    0.82901   0.51663   0.51631   1.000
    H51     H    0.82575   0.43893   0.43867   1.000
    H52     H    0.84508   0.48392   0.01673   1.000
    H53     H    0.76450   0.56151   0.93895   1.000
    H54     H    0.84510   0.01677   0.48389   1.000
    H55     H    0.76439   0.93899   0.56151   1.000
    C56     C    0.41072   0.41720   0.55624   1.000
    C57     C    0.31427   0.40084   0.54257   1.000
    C58     C    0.88425   0.08269   0.94386   1.000
    C59     C    0.75785   0.09895   0.95764   1.000
    C60     C    0.46697   0.44373   0.91723   1.000
    C61     C    0.35695   0.45734   0.90084   1.000
    C62     C    0.32817   0.05606   0.58265   1.000
    C63     C    0.21553   0.04226   0.59883   1.000
    C64     C    0.11571   0.05627   0.91724   1.000
    C65     C    0.24213   0.04257   0.90087   1.000
    C66     C    0.58925   0.44385   0.58269   1.000
    C67     C    0.68571   0.45760   0.59890   1.000
    C68     C    0.67176   0.41740   0.94392   1.000
    C69     C    0.78435   0.40122   0.95772   1.000
    C70     C    0.53304   0.08274   0.55631   1.000
    C71     C    0.64308   0.09916   0.54269   1.000
    C72     C    0.58931   0.58276   0.44375   1.000
    C73     C    0.68574   0.59913   0.45743   1.000
    C74     C    0.11572   0.91731   0.05615   1.000
    C75     C    0.24212   0.90104   0.04230   1.000
    C76     C    0.53302   0.55629   0.08275   1.000
    C77     C    0.64304   0.54269   0.09915   1.000
    C78     C    0.67179   0.94393   0.41740   1.000
    C79     C    0.78443   0.95773   0.40121   1.000
    C80     C    0.88425   0.94374   0.08277   1.000
    C81     C    0.75783   0.95744   0.09914   1.000
    C82     C    0.41078   0.55612   0.41700   1.000
    C83     C    0.31430   0.54237   0.40100   1.000
    C84     C    0.32822   0.58263   0.05607   1.000
    C85     C    0.21563   0.59880   0.04228   1.000
    C86     C    0.46693   0.91723   0.44375   1.000
    C87     C    0.35687   0.90082   0.45738   1.000
    C88     C    0.45420   0.49338   0.49344   1.000
    C89     C    0.23444   0.49989   0.50015   1.000
    C90     C    0.94106   0.00652   0.00658   1.000
    C91     C    0.73447   0.99985   0.00010   1.000
    C92     C    0.44766   0.50653   0.99340   1.000
    C93     C    0.23470   0.49969   0.99985   1.000
    C94     C    0.44764   0.99339   0.50650   1.000
    C95     C    0.23468   0.99982   0.49973   1.000
    C96     C    0.05889   0.99350   0.99345   1.000
    C97     C    0.26549   0.00000   0.99991   1.000
    C98     C    0.54585   0.50656   0.50652   1.000
    C99     C    0.76558   0.50008   0.49984   1.000
    C100    C    0.55232   0.49351   0.00657   1.000
    C101    C    0.76528   0.50033   0.00014   1.000
    C102    C    0.55231   0.00657   0.49352   1.000
    C103    C    0.76528   0.00016   0.50032   1.000
    I104    I    0.49986   0.15197   0.84807   1.000
    I105    I    0.00007   0.34761   0.65243   1.000
    I106    I    0.84725   0.15232   0.65234   1.000
    I107    I    0.15257   0.34779   0.84783   1.000
    I108    I    0.50010   0.84803   0.15196   1.000
    I109    I    0.99991   0.65240   0.34760   1.000
    I110    I    0.15272   0.84769   0.34766   1.000
    I111    I    0.84738   0.65222   0.15219   1.000
    N112    N    0.45473   0.35961   0.62707   1.000
    N113    N    0.94144   0.14041   0.87301   1.000
    N114    N    0.58170   0.37293   0.85971   1.000
    N115    N    0.31458   0.12689   0.64037   1.000
    N116    N    0.05858   0.12703   0.85956   1.000
    N117    N    0.54514   0.37301   0.64030   1.000
    N118    N    0.68535   0.35960   0.87317   1.000
    N119    N    0.41828   0.14028   0.62709   1.000
    N120    N    0.54522   0.64041   0.37297   1.000
    N121    N    0.05853   0.85959   0.12698   1.000
    N122    N    0.41828   0.62706   0.14031   1.000
    N123    N    0.68537   0.87314   0.35964   1.000
    N124    N    0.94140   0.87295   0.14044   1.000
    N125    N    0.45484   0.62699   0.35963   1.000
    N126    N    0.31462   0.64039   0.12687   1.000
    N127    N    0.58168   0.85972   0.37294   1.000
loop_
    _geom_bond_atom_site_label_1
    _geom_bond_atom_site_label_2
    _geom_bond_distance
    _geom_bond_site_symmetry_2
    _ccdc_geom_bond_type
    C91    H42       1.09718  1_565   S
    C91    C81       1.53183      .   S
    C91    H43       1.10131  1_554   S
    C91    C59       1.53184  1_564   S
    C101   H52       1.09720      .   S
    C101   C77       1.53183      .   S
    C101   H53       1.10114  1_554   S
    C101   C69       1.53186  1_554   S
    C100   C76       1.41997      .   S
    C100   C68       1.41991  1_554   S
    C100   C92       1.40462  1_554   S
    C90    C80       1.41978  1_545   S
    C90    C58       1.42009  1_554   S
    C90    C96       1.40501  1_644   S
    H10    C59       1.10530  1_554   S
    H20    C69       1.10546  1_554   S
    C85    C84       1.49757      .   S
    C85    H37       1.10061      .   S
    C85    H36       1.10590  1_554   S
    C85    C93       1.53191  1_554   S
    C75    C74       1.49731      .   S
    C75    H27       1.10148      .   S
    C75    H26       1.10496  1_554   S
    C75    C97       1.52975  1_564   S
    C84    N126      1.34124      .   S
    C84    C92       1.41990  1_554   S
    C74    N121      1.34115      .   S
    C74    C96       1.42006  1_554   S
    H45    C93       1.10119  1_554   S
    H49    C97       1.10221  1_554   S
    C76    C77       1.49769      .   S
    C76    N122      1.34112      .   S
    C80    C81       1.49766      .   S
    C80    N124      1.34125      .   S
    C81    H33       1.10066      .   S
    C81    H32       1.10540  1_565   S
    C77    H29       1.10046      .   S
    C77    H28       1.10540      .   S
    N126   N122      1.39218      .   S
    N126   Cu5       2.03248      .   S
    N121   N124      1.39263  1_455   S
    N121   Cu5       2.03149      .   S
    N122   Cu6       2.02881      .   S
    N124   Cu7       2.03134      .   S
    I108   Cu4       2.67420      .   S
    I111   Cu7       2.67403      .   S
    Cu5    I110      2.67362      .   S
    Cu6    N125      2.03023      .   S
    Cu7    I109      2.67404      .   S
    Cu7    N123      2.03188      .   S
    Cu4    N127      2.02939      .   S
    Cu4    N120      2.02999      .   S
    H34    C83       1.10481      .   S
    H30    C79       1.10527  1_545   S
    N125   N120      1.39211      .   S
    N125   C82       1.34006      .   S
    N123   N127      1.39219      .   S
    N123   C78       1.34118      .   S
    N127   C86       1.34116      .   S
    N120   C72       1.34116      .   S
    H35    C83       1.10033      .   S
    H31    C79       1.10067      .   S
    H39    C87       1.10076      .   S
    H25    C73       1.10068      .   S
    C83    C82       1.49570      .   S
    C83    C89       1.53228      .   S
    C79    C78       1.49766      .   S
    C79    C103      1.53175  1_565   S
    C82    C88       1.42342      .   S
    C78    C102      1.42002  1_565   S
    H47    C95       1.10095  1_545   S
    H51    C99       1.10109      .   S
    C86    C87       1.49773      .   S
    C86    C94       1.41939      .   S
    C72    C73       1.49769      .   S
    C72    C98       1.41997      .   S
    C87    C95       1.53186      .   S
    C87    H38       1.10544      .   S
    C73    C99       1.53187      .   S
    C73    H24       1.10539      .   S
    H40    C89       1.09719      .   S
    H54    C103      1.09721      .   S
    H8     C57       1.10545      .   S
    H22    C71       1.10544      .   S
    C88    C98       1.40458      .   S
    C88    C56       1.42000      .   S
    C102   C94       1.40459  1_545   S
    C102   C70       1.41998      .   S
    C95    H46       1.09718      .   S
    C95    C63       1.53174  1_565   S
    C99    H50       1.09722      .   S
    C99    C67       1.53161      .   S
    C89    C57       1.53192      .   S
    C89    H41       1.10112      .   S
    C103   C71       1.53184      .   S
    C103   H55       1.10099  1_545   S
    C94    C62       1.42032  1_565   S
    C98    C66       1.42000      .   S
    C57    C56       1.49771      .   S
    C57    H9        1.10063      .   S
    C71    C70       1.49771      .   S
    C71    H23       1.10070      .   S
    C56    N112      1.34106      .   S
    C70    N119      1.34110      .   S
    C62    C63       1.49766      .   S
    C62    N115      1.34117      .   S
    C66    C67       1.49736      .   S
    C66    N117      1.34079      .   S
    C63    H15       1.10068      .   S
    C63    H14       1.10532  1_545   S
    C67    H19       1.10088      .   S
    C67    H18       1.10157      .   S
    N112   N117      1.39144      .   S
    N112   Cu0       2.02989      .   S
    N119   N115      1.39218      .   S
    N119   Cu0       2.02836      .   S
    N117   Cu2       2.02983      .   S
    N115   Cu3       2.03216      .   S
    I106   Cu1       2.67402      .   S
    I105   Cu3       2.67400      .   S
    Cu0    I104      2.67483      .   S
    Cu3    I107      2.67367      .   S
    Cu3    N116      2.03110      .   S
    Cu2    N114      2.03017      .   S
    Cu1    N113      2.03170      .   S
    Cu1    N118      2.03227      .   S
    H12    C61       1.10546      .   S
    H16    C65       1.10532  1_565   S
    N116   N113      1.39268  1_455   S
    N116   C64       1.34110      .   S
    N114   N118      1.39225      .   S
    N114   C60       1.34112      .   S
    N113   C58       1.34121      .   S
    N118   C68       1.34116      .   S
    H17    C65       1.10070      .   S
    H13    C61       1.10069      .   S
    H11    C59       1.10068      .   S
    H21    C69       1.10066      .   S
    C61    C60       1.49764      .   S
    C61    C93       1.53182      .   S
    C65    C64       1.49765      .   S
    C65    C97       1.53211      .   S
    C60    C92       1.42001      .   S
    C64    C96       1.41984  1_545   S
    C58    C59       1.49761      .   S
    C68    C69       1.49760      .   S
    H44    C93       1.09715      .   S
    H48    C97       1.09774  1_565   S
