# CIF file generated by openbabel 2.4.90, see http://openbabel.sf.net
data_I
_chemical_name_common ''
_cell_length_a 8.837
_cell_length_b 15.677
_cell_length_c 19.444
_cell_angle_alpha 90.035
_cell_angle_beta 90.012
_cell_angle_gamma 90.146
_space_group_name_H-M_alt 'P 1'
_space_group_name_Hall 'P 1'
loop_
    _symmetry_equiv_pos_as_xyz
    x,y,z
loop_
    _atom_site_label
    _atom_site_type_symbol
    _atom_site_fract_x
    _atom_site_fract_y
    _atom_site_fract_z
    _atom_site_occupancy
    N0      N    0.94902   0.94061   0.89012   1.000
    N1      N    0.44910   0.56021   0.10751   1.000
    N2      N    0.55098   0.05976   0.38988   1.000
    N3      N    0.05349   0.43994   0.60754   1.000
    Zr4     Zr   0.13825   0.05270   0.57251   1.000
    O5      O    0.96920   0.04792   0.52134   1.000
    O6      O    0.26517   0.05449   0.52062   1.000
    O7      O    0.11201   0.16581   0.58144   1.000
    O8      O    0.08950   0.02042   0.66441   1.000
    Zr9     Zr   0.36131   0.94733   0.07250   1.000
    O10     O    0.38839   0.83425   0.08143   1.000
    O11     O    0.41015   0.97972   0.16434   1.000
    O12     O    0.53044   0.95223   0.02139   1.000
    O13     O    0.23448   0.94562   0.02067   1.000
    Zr14    Zr   0.86110   0.55300   0.92482   1.000
    O15     O    0.03019   0.54821   0.97604   1.000
    O16     O    0.73437   0.55475   0.97676   1.000
    O17     O    0.91075   0.52040   0.83303   1.000
    O18     O    0.88824   0.66620   0.91600   1.000
    Zr19    Zr   0.64321   0.44711   0.42461   1.000
    O20     O    0.59306   0.47971   0.33287   1.000
    O21     O    0.61479   0.33398   0.41578   1.000
    O22     O    0.74648   0.44859   0.47627   1.000
loop_
    _geom_bond_atom_site_label_1
    _geom_bond_atom_site_label_2
    _geom_bond_distance
    _geom_bond_site_symmetry_2
    _ccdc_geom_bond_type
    Zr4    O5        1.79616  1_455   S
    N2     O5        4.49747      .   S
    Zr4    O6        1.50912      .   S
    N2     O6        3.58474      .   S
    Zr4    O7        1.79734      .   S
    N3     O7        4.35908      .   S
    Zr4    O8        1.90641      .   S
    N0     O8        4.72958  1_665   S
    Zr9    O10       1.79786      .   S
    N1     O10       4.36070      .   S
    Zr9    O11       1.90525      .   S
    N2     O11       4.72631  1_545   S
    Zr9    O12       1.79650      .   S
    N0     O12       4.49864  1_556   S
    Zr9    O13       1.50732      .   S
    N0     O13       3.57906  1_656   S
    Zr14   O15       1.79730  1_655   S
    N1     O15       4.50187  1_554   S
    Zr14   O16       1.50841      .   S
    N1     O16       3.58189  1_554   S
    Zr14   O17       1.90776      .   S
    N3     O17       4.73372  1_455   S
    Zr14   O18       1.79854      .   S
    N0     O18       4.36337      .   S
    Zr19   O20       1.90835      .   S
    N1     O20       4.73536      .   S
    Zr19   O21       1.79868      .   S
    N2     O21       4.36316      .   S
    Zr19   O22       1.35717      .   S
    N3     O22       3.72736  1_455   S
