# CIF file generated by openbabel 2.4.90, see http://openbabel.sf.net
data_I
_chemical_name_common ''
_cell_length_a 8.837
_cell_length_b 15.677
_cell_length_c 19.444
_cell_angle_alpha 90.035
_cell_angle_beta 90.012
_cell_angle_gamma 90.146
_space_group_name_H-M_alt 'P 1'
_space_group_name_Hall 'P 1'
loop_
    _symmetry_equiv_pos_as_xyz
    x,y,z
loop_
    _atom_site_label
    _atom_site_type_symbol
    _atom_site_fract_x
    _atom_site_fract_y
    _atom_site_fract_z
    _atom_site_occupancy
    C0      C    0.36131   0.94733   0.07250   1.000
    C1      C    0.13825   0.05270   0.57251   1.000
    C2      C    0.64321   0.44711   0.42461   1.000
    C3      C    0.86110   0.55300   0.92482   1.000
    C4      C    0.72673   0.13415   0.49569   1.000
    C5      C    0.14460   0.98661   0.31258   1.000
    C6      C    0.76983   0.29093   0.49415   1.000
    C7      C    0.83802   0.88827   0.41785   1.000
    C8      C    0.78392   0.98880   0.38476   1.000
    C9      C    0.14105   0.96529   0.18500   1.000
    C10     C    0.36783   0.17402   0.34713   1.000
    C11     C    0.42638   0.32786   0.35201   1.000
    C12     C    0.60394   0.00616   0.17049   1.000
    C13     C    0.62651   0.03284   0.29600   1.000
    C14     C    0.28667   0.02658   0.41216   1.000
    C15     C    0.69826   0.91975   0.53006   1.000
    C16     C    0.77359   0.86576   0.99561   1.000
    C17     C    0.35465   0.01411   0.81268   1.000
    C18     C    0.73252   0.70881   0.00000   1.000
    C19     C    0.66122   0.11230   0.91852   1.000
    C20     C    0.71554   0.01207   0.88484   1.000
    C21     C    0.35827   0.03515   0.68509   1.000
    C22     C    0.13277   0.82683   0.84707   1.000
    C23     C    0.07624   0.67280   0.85216   1.000
    C24     C    0.89549   0.99393   0.67042   1.000
    C25     C    0.87285   0.96753   0.79594   1.000
    C26     C    0.21271   0.97401   0.91213   1.000
    C27     C    0.80121   0.08034   0.03044   1.000
    C28     C    0.27301   0.63419   0.00220   1.000
    C29     C    0.85592   0.48805   0.18397   1.000
    C30     C    0.23206   0.79100   0.00346   1.000
    C31     C    0.15830   0.38862   0.07901   1.000
    C32     C    0.21477   0.48853   0.11304   1.000
    C33     C    0.86168   0.46657   0.31151   1.000
    C34     C    0.63305   0.67420   0.15038   1.000
    C35     C    0.57669   0.82810   0.14516   1.000
    C36     C    0.39887   0.50544   0.32764   1.000
    C37     C    0.37406   0.53211   0.20224   1.000
    C38     C    0.71246   0.52742   0.08506   1.000
    C39     C    0.29867   0.42068   0.96718   1.000
    C40     C    0.22908   0.36548   0.50234   1.000
    C41     C    0.64712   0.51214   0.68429   1.000
    C42     C    0.26852   0.20854   0.50350   1.000
    C43     C    0.34505   0.61124   0.57885   1.000
    C44     C    0.28861   0.51134   0.61279   1.000
    C45     C    0.64188   0.53330   0.81191   1.000
    C46     C    0.86857   0.32665   0.65038   1.000
    C47     C    0.92344   0.17259   0.64509   1.000
    C48     C    0.10490   0.49492   0.82757   1.000
    C49     C    0.12918   0.46855   0.70209   1.000
    C50     C    0.79041   0.47295   0.58521   1.000
    C51     C    0.20441   0.57907   0.46697   1.000
    C52     C    0.68409   0.95570   0.48246   1.000
    C53     C    0.38690   0.00989   0.31544   1.000
    C54     C    0.55506   0.00013   0.47789   1.000
    C55     C    0.54271   0.13966   0.42116   1.000
    C56     C    0.65753   0.17480   0.46306   1.000
    C57     C    0.24840   0.98995   0.28243   1.000
    C58     C    0.68178   0.26199   0.46251   1.000
    C59     C    0.81099   0.95457   0.43238   1.000
    C60     C    0.95866   0.99233   0.46196   1.000
    C61     C    0.24656   0.97711   0.21241   1.000
    C62     C    0.45832   0.19670   0.38033   1.000
    C63     C    0.49069   0.28293   0.38321   1.000
    C64     C    0.50513   0.00117   0.20391   1.000
    C65     C    0.51754   0.01594   0.27381   1.000
    C66     C    0.44038   0.00078   0.53551   1.000
    C67     C    0.81534   0.04455   0.98275   1.000
    C68     C    0.11239   0.99070   0.81546   1.000
    C69     C    0.94438   0.00014   0.97803   1.000
    C70     C    0.95768   0.86073   0.92113   1.000
    C71     C    0.84330   0.82528   0.96304   1.000
    C72     C    0.25087   0.01064   0.78249   1.000
    C73     C    0.82020   0.73799   0.96263   1.000
    C74     C    0.68842   0.04592   0.93265   1.000
    C75     C    0.54084   0.00786   0.96201   1.000
    C76     C    0.25275   0.02331   0.71247   1.000
    C77     C    0.04265   0.80391   0.88032   1.000
    C78     C    0.01143   0.71756   0.88332   1.000
    C79     C    0.99425   0.99906   0.70387   1.000
    C80     C    0.98180   0.98446   0.77378   1.000
    C81     C    0.05916   0.00000   0.03561   1.000
    C82     C    0.31375   0.45618   0.01497   1.000
    C83     C    0.61343   0.51011   0.18192   1.000
    C84     C    0.44328   0.50055   0.01954   1.000
    C85     C    0.45749   0.63976   0.07652   1.000
    C86     C    0.34292   0.67487   0.03468   1.000
    C87     C    0.75256   0.49080   0.21445   1.000
    C88     C    0.31990   0.76210   0.03503   1.000
    C89     C    0.18699   0.45497   0.06513   1.000
    C90     C    0.04037   0.49375   0.03565   1.000
    C91     C    0.75567   0.47789   0.28444   1.000
    C92     C    0.54277   0.69685   0.11719   1.000
    C93     C    0.51164   0.78313   0.11412   1.000
    C94     C    0.49713   0.50085   0.29387   1.000
    C95     C    0.48348   0.51562   0.22402   1.000
    C96     C    0.55690   0.50192   0.96148   1.000
    C97     C    0.18939   0.54372   0.51483   1.000
    C98     C    0.88969   0.49038   0.68202   1.000
    C99     C    0.05969   0.49956   0.51957   1.000
    C100    C    0.04454   0.36053   0.57660   1.000
    C101    C    0.15877   0.32504   0.53478   1.000
    C102    C    0.75064   0.50946   0.71469   1.000
    C103    C    0.18094   0.23774   0.53508   1.000
    C104    C    0.31631   0.54490   0.56491   1.000
    C105    C    0.46294   0.50613   0.53541   1.000
    C106    C    0.74781   0.52220   0.78472   1.000
    C107    C    0.95868   0.30373   0.61721   1.000
    C108    C    0.98896   0.21735   0.61410   1.000
    C109    C    0.00647   0.49948   0.79389   1.000
    C110    C    0.01983   0.48488   0.72400   1.000
    C111    C    0.94573   0.49811   0.46166   1.000
    C112    C    0.38692   0.02475   0.38446   1.000
    C113    C    0.51793   0.05210   0.41873   1.000
    C114    C    0.60033   0.31677   0.42342   1.000
    C115    C    0.37267   0.98157   0.17243   1.000
    C116    C    0.11235   0.97607   0.88450   1.000
    C117    C    0.98153   0.94838   0.91870   1.000
    C118    C    0.90239   0.68340   0.92364   1.000
    C119    C    0.12670   0.01867   0.67244   1.000
    C120    C    0.61243   0.52479   0.11288   1.000
    C121    C    0.48130   0.55217   0.07891   1.000
    C122    C    0.40240   0.81695   0.07387   1.000
    C123    C    0.63020   0.48174   0.32486   1.000
    C124    C    0.89060   0.47596   0.61293   1.000
    C125    C    0.02159   0.44821   0.57902   1.000
    C126    C    0.09788   0.18317   0.57386   1.000
    C127    C    0.87350   0.51839   0.82502   1.000
    C128    C    0.96040   0.00039   0.52837   1.000
    C129    C    0.06267   0.01168   0.42170   1.000
    C130    C    0.45683   0.95652   0.58759   1.000
    C131    C    0.32818   0.05293   0.52262   1.000
    C132    C    0.53891   0.00000   0.02838   1.000
    C133    C    0.43705   0.98838   0.92163   1.000
    C134    C    0.04288   0.04353   0.08777   1.000
    C135    C    0.17125   0.94713   0.02261   1.000
    C136    C    0.03784   0.50029   0.96917   1.000
    C137    C    0.93787   0.51514   0.07597   1.000
    C138    C    0.53752   0.45949   0.90855   1.000
    C139    C    0.67128   0.55263   0.97492   1.000
    C140    C    0.46575   0.49963   0.46891   1.000
    C141    C    0.56526   0.48474   0.57584   1.000
    C142    C    0.96398   0.54070   0.40879   1.000
    C143    C    0.83194   0.44703   0.47515   1.000
    O144    O    0.77636   0.72340   0.98132   1.000
    O145    O    0.30797   0.65453   0.01844   1.000
    O146    O    0.27598   0.77655   0.01925   1.000
    O147    O    0.37852   0.47837   0.01725   1.000
    O148    O    0.25037   0.45558   0.04005   1.000
    O149    O    0.30621   0.43843   0.99108   1.000
    O150    O    0.46229   0.52636   0.04922   1.000
    O151    O    0.50009   0.50124   0.99051   1.000
    O152    O    0.11520   0.97357   0.02911   1.000
    O153    O    0.26628   0.94723   0.04756   1.000
    O154    O    0.45011   0.97366   0.05044   1.000
    O155    O    0.53987   0.00393   0.99520   1.000
    O156    O    0.80827   0.06244   0.00659   1.000
    O157    O    0.33141   0.71849   0.03486   1.000
    O158    O    0.40021   0.65732   0.05560   1.000
    O159    O    0.36115   0.78953   0.05445   1.000
    O160    O    0.05102   0.02176   0.06169   1.000
    O161    O    0.00177   0.00007   0.00682   1.000
    O162    O    0.11368   0.47436   0.05039   1.000
    O163    O    0.98912   0.50445   0.05581   1.000
    O164    O    0.03910   0.49702   0.00241   1.000
    O165    O    0.17265   0.42180   0.07207   1.000
    O166    O    0.20088   0.47175   0.08908   1.000
    O167    O    0.38185   0.88214   0.07319   1.000
    O168    O    0.36699   0.96445   0.12247   1.000
    O169    O    0.45702   0.80004   0.09400   1.000
    O170    O    0.46940   0.59596   0.07771   1.000
    O171    O    0.50013   0.66831   0.09686   1.000
    O172    O    0.54687   0.53848   0.09589   1.000
    O173    O    0.66244   0.52611   0.09897   1.000
    O174    O    0.61293   0.51745   0.14740   1.000
    O175    O    0.52720   0.73999   0.11566   1.000
    O176    O    0.54416   0.80562   0.12964   1.000
    O177    O    0.58791   0.68553   0.13379   1.000
    O178    O    0.55453   0.00366   0.18720   1.000
    O179    O    0.43890   0.99137   0.18817   1.000
    O180    O    0.30962   0.97934   0.19242   1.000
    O181    O    0.68299   0.50046   0.19819   1.000
    O182    O    0.54845   0.51287   0.20297   1.000
    O183    O    0.80424   0.48942   0.19921   1.000
    O184    O    0.19381   0.97120   0.19871   1.000
    O185    O    0.42877   0.52387   0.21313   1.000
    O186    O    0.51133   0.00855   0.23886   1.000
    O187    O    0.24748   0.98353   0.24742   1.000
    O188    O    0.75411   0.48434   0.24944   1.000
    O189    O    0.49030   0.50824   0.25894   1.000
    O190    O    0.57203   0.02439   0.28491   1.000
    O191    O    0.45222   0.01291   0.29463   1.000
    O192    O    0.19650   0.98828   0.29751   1.000
    O193    O    0.31765   0.99992   0.29894   1.000
    O194    O    0.80868   0.47223   0.29797   1.000
    O195    O    0.69294   0.47982   0.30465   1.000
    O196    O    0.56367   0.49130   0.30936   1.000
    O197    O    0.44800   0.50315   0.31075   1.000
    O198    O    0.38691   0.01732   0.34995   1.000
    O199    O    0.63670   0.46443   0.37474   1.000
    O200    O    0.41308   0.18536   0.36373   1.000
    O201    O    0.45853   0.30540   0.36761   1.000
    O202    O    0.47450   0.23982   0.38177   1.000
    O203    O    0.50052   0.16818   0.40075   1.000
    O204    O    0.54551   0.29985   0.40331   1.000
    O205    O    0.33680   0.02566   0.39831   1.000
    O206    O    0.45242   0.03842   0.40159   1.000
    O207    O    0.79746   0.97168   0.40857   1.000
    O208    O    0.95485   0.51940   0.43523   1.000
    O209    O    0.82450   0.92142   0.42512   1.000
    O210    O    0.53032   0.09588   0.41994   1.000
    O211    O    0.53650   0.02612   0.44831   1.000
    O212    O    0.60012   0.15723   0.44211   1.000
    O213    O    0.01066   0.00201   0.44183   1.000
    O214    O    0.62177   0.38194   0.42402   1.000
    O215    O    0.64106   0.28938   0.44296   1.000
    O216    O    0.55448   0.47337   0.44676   1.000
    O217    O    0.73757   0.44707   0.44988   1.000
    O218    O    0.88482   0.97345   0.44717   1.000
    O219    O    0.74754   0.95513   0.45742   1.000
    O220    O    0.88884   0.47257   0.46841   1.000
    O221    O    0.00271   0.49883   0.49061   1.000
    O222    O    0.95953   0.99636   0.49516   1.000
    O223    O    0.66966   0.21839   0.46278   1.000
    O224    O    0.72581   0.27646   0.47833   1.000
    O225    O    0.69213   0.15447   0.47937   1.000
    O226    O    0.19690   0.56140   0.49090   1.000
    O227    O    0.46434   0.50288   0.50216   1.000
    O228    O    0.61958   0.97792   0.48017   1.000
    O229    O    0.49772   0.00045   0.50670   1.000
    O230    O    0.69118   0.93772   0.50626   1.000
    O231    O    0.19393   0.34526   0.51856   1.000
    O232    O    0.22473   0.22314   0.51929   1.000
    O233    O    0.12454   0.52164   0.51720   1.000
    O234    O    0.25285   0.54431   0.53987   1.000
    O235    O    0.04064   0.47389   0.54930   1.000
    O236    O    0.38428   0.02685   0.52906   1.000
    O237    O    0.23321   0.05281   0.54757   1.000
    O238    O    0.04933   0.02654   0.55044   1.000
    O239    O    0.16985   0.28139   0.53493   1.000
    O240    O    0.10165   0.34278   0.55569   1.000
    O241    O    0.13941   0.21045   0.55447   1.000
    O242    O    0.38962   0.52551   0.55016   1.000
    O243    O    0.51410   0.49543   0.55563   1.000
    O244    O    0.44860   0.97865   0.56155   1.000
    O245    O    0.33068   0.57807   0.57188   1.000
    O246    O    0.30246   0.52812   0.58885   1.000
    O247    O    0.11806   0.11793   0.57319   1.000
    O248    O    0.13247   0.03568   0.62248   1.000
    O249    O    0.04342   0.20026   0.59398   1.000
    O250    O    0.03306   0.40437   0.57781   1.000
    O251    O    0.00161   0.33213   0.59691   1.000
    O252    O    0.95609   0.46208   0.59598   1.000
    O253    O    0.84050   0.47446   0.59907   1.000
    O254    O    0.89014   0.48317   0.64747   1.000
    O255    O    0.97382   0.26054   0.61566   1.000
    O256    O    0.95620   0.19497   0.62959   1.000
    O257    O    0.91362   0.31519   0.63380   1.000
    O258    O    0.94487   0.99649   0.68715   1.000
    O259    O    0.06047   0.00886   0.68816   1.000
    O260    O    0.18972   0.02099   0.69245   1.000
    O261    O    0.82016   0.49992   0.69836   1.000
    O262    O    0.95476   0.48763   0.70301   1.000
    O263    O    0.69888   0.51080   0.69949   1.000
    O264    O    0.30551   0.02923   0.69878   1.000
    O265    O    0.07451   0.47672   0.71304   1.000
    O266    O    0.98803   0.99176   0.73883   1.000
    O267    O    0.25181   0.01698   0.74748   1.000
    O268    O    0.74922   0.51583   0.74971   1.000
    O269    O    0.01315   0.49218   0.75894   1.000
    O270    O    0.92732   0.97599   0.78486   1.000
    O271    O    0.04709   0.98758   0.79462   1.000
    O272    O    0.30276   0.01238   0.79759   1.000
    O273    O    0.18163   0.00067   0.79898   1.000
    O274    O    0.69484   0.52775   0.79831   1.000
    O275    O    0.81065   0.52030   0.80487   1.000
    O276    O    0.93998   0.50893   0.80945   1.000
    O277    O    0.05568   0.49720   0.81073   1.000
    O278    O    0.11237   0.98338   0.84998   1.000
    O279    O    0.86730   0.53569   0.87492   1.000
    O280    O    0.08771   0.81537   0.86369   1.000
    O281    O    0.04384   0.69518   0.86774   1.000
    O282    O    0.02704   0.76073   0.88182   1.000
    O283    O    0.00016   0.83232   0.90073   1.000
    O284    O    0.95691   0.70048   0.90348   1.000
    O285    O    0.16253   0.97504   0.89831   1.000
    O286    O    0.04694   0.96222   0.90160   1.000
    O287    O    0.70198   0.02899   0.90875   1.000
    O288    O    0.54721   0.48071   0.93502   1.000
    O289    O    0.67482   0.07911   0.92559   1.000
    O290    O    0.96960   0.90456   0.91992   1.000
    O291    O    0.96296   0.97426   0.94837   1.000
    O292    O    0.90049   0.84301   0.94209   1.000
    O293    O    0.48894   0.99812   0.94182   1.000
    O294    O    0.88175   0.61820   0.92423   1.000
    O295    O    0.86129   0.71070   0.94314   1.000
    O296    O    0.94947   0.52664   0.94699   1.000
    O297    O    0.76619   0.55281   0.94987   1.000
    O298    O    0.61463   0.02689   0.94733   1.000
    O299    O    0.75188   0.04524   0.95770   1.000
    O300    O    0.61409   0.52727   0.96820   1.000
    O301    O    0.83175   0.78164   0.96284   1.000
    O302    O    0.80844   0.84552   0.97933   1.000
    O303    O    0.87986   0.02235   0.98039   1.000
loop_
    _geom_bond_atom_site_label_1
    _geom_bond_atom_site_label_2
    _geom_bond_distance
    _geom_bond_site_symmetry_2
    _ccdc_geom_bond_type
    C18    O144      0.57801  1_554   S
    C73    O144      0.57801      .   S
    C28    O145      0.54422      .   S
    C86    O145      0.54422      .   S
    C30    O146      0.54466      .   S
    C88    O146      0.54466      .   S
    C82    O147      0.67038      .   S
    C84    O147      0.67038      .   S
    C82    O148      0.74277      .   S
    C89    O148      0.74277      .   S
    C82    O149      0.54541  1_554   S
    C39    O149      0.54541      .   S
    C84    O150      0.72417      .   S
    C121   O150      0.72417      .   S
    C84    O151      0.75552  1_554   S
    C96    O151      0.75552      .   S
    C135   O152      0.65882      .   S
    C81    O152      0.65882  1_545   S
    C135   O153      0.96973      .   S
    C0     O153      0.96973      .   S
    C132   O154      0.98434  1_545   S
    C0     O154      0.98434      .   S
    C132   O155      0.64828  1_554   S
    C75    O155      0.64828      .   S
    C27    O156      0.54546      .   S
    C67    O156      0.54546  1_556   S
    C86    O157      0.69151      .   S
    C88    O157      0.69151      .   S
    C86    O158      0.70583      .   S
    C85    O158      0.70583      .   S
    C88    O159      0.67771      .   S
    C122   O159      0.67771      .   S
    C81    O160      0.61536      .   S
    C134   O160      0.61536      .   S
    C81    O161      0.75528      .   S
    C69    O161      0.75528  1_656   S
    C90    O162      0.77155      .   S
    C89    O162      0.77155      .   S
    C90    O163      0.62231  1_455   S
    C137   O163      0.62231      .   S
    C90    O164      0.64844      .   S
    C136   O164      0.64844  1_556   S
    C89    O165      0.55182      .   S
    C31    O165      0.55182      .   S
    C89    O166      0.54847      .   S
    C32    O166      0.54847      .   S
    C0     O167      1.03849      .   S
    C122   O167      1.03849      .   S
    C0     O168      1.00894      .   S
    C115   O168      1.00894      .   S
    C122   O169      0.67605      .   S
    C93    O169      0.67605      .   S
    C85    O170      0.69526      .   S
    C121   O170      0.69526      .   S
    C85    O171      0.70532      .   S
    C92    O171      0.70532      .   S
    C121   O172      0.70104      .   S
    C120   O172      0.70104      .   S
    C38    O173      0.51859      .   S
    C120   O173      0.51859      .   S
    C120   O174      0.68110      .   S
    C83    O174      0.68110      .   S
    C93    O175      0.69112      .   S
    C92    O175      0.69112      .   S
    C93    O176      0.54528      .   S
    C35    O176      0.54528      .   S
    C92    O177      0.54326      .   S
    C34    O177      0.54326      .   S
    C12    O178      0.54560      .   S
    C64    O178      0.54560      .   S
    C115   O179      0.67764      .   S
    C64    O179      0.67764  1_545   S
    C115   O180      0.68029      .   S
    C61    O180      0.68029      .   S
    C83    O181      0.70803      .   S
    C87    O181      0.70803      .   S
    C83    O182      0.70660      .   S
    C95    O182      0.70660      .   S
    C29    O183      0.54497      .   S
    C87    O183      0.54497      .   S
    C9     O184      0.54466      .   S
    C61    O184      0.54466      .   S
    C37    O185      0.54367      .   S
    C95    O185      0.54367      .   S
    C64    O186      0.69145      .   S
    C65    O186      0.69145      .   S
    C61    O187      0.68809      .   S
    C57    O187      0.68809      .   S
    C87    O188      0.68805      .   S
    C91    O188      0.68805      .   S
    C95    O189      0.69159      .   S
    C94    O189      0.69159      .   S
    C65    O190      0.54362      .   S
    C13    O190      0.54362      .   S
    C65    O191      0.70659      .   S
    C53    O191      0.70659      .   S
    C57    O192      0.54497      .   S
    C5     O192      0.54497      .   S
    C57    O193      0.70800      .   S
    C53    O193      0.70800  1_545   S
    C91    O194      0.54474      .   S
    C33    O194      0.54474      .   S
    C91    O195      0.68033      .   S
    C123   O195      0.68033      .   S
    C94    O196      0.67777      .   S
    C123   O196      0.67777      .   S
    C94    O197      0.54562      .   S
    C36    O197      0.54562      .   S
    C53    O198      0.68090      .   S
    C112   O198      0.68090      .   S
    C123   O199      1.00890      .   S
    C2     O199      1.00890      .   S
    C10    O200      0.54326      .   S
    C62    O200      0.54326      .   S
    C11    O201      0.54528      .   S
    C63    O201      0.54528      .   S
    C62    O202      0.69109      .   S
    C63    O202      0.69109      .   S
    C62    O203      0.70535      .   S
    C55    O203      0.70535      .   S
    C63    O204      0.67603      .   S
    C114   O204      0.67603      .   S
    C112   O205      0.51865      .   S
    C14    O205      0.51865      .   S
    C112   O206      0.70091      .   S
    C113   O206      0.70091      .   S
    C8     O207      0.54854      .   S
    C59    O207      0.54854      .   S
    C142   O208      0.61833      .   S
    C111   O208      0.61833      .   S
    C7     O209      0.55178      .   S
    C59    O209      0.55178      .   S
    C113   O210      0.69513      .   S
    C55    O210      0.69513      .   S
    C113   O211      0.72403      .   S
    C54    O211      0.72403      .   S
    C55    O212      0.70583      .   S
    C56    O212      0.70583      .   S
    C129   O213      0.62228      .   S
    C60    O213      0.62228  1_665   S
    C114   O214      1.03863      .   S
    C2     O214      1.03863      .   S
    C114   O215      0.67771      .   S
    C58    O215      0.67771      .   S
    C2     O216      0.98557      .   S
    C140   O216      0.98557      .   S
    C2     O217      0.96782      .   S
    C143   O217      0.96782      .   S
    C59    O218      0.77126      .   S
    C60    O218      0.77126      .   S
    C59    O219      0.74274      .   S
    C52    O219      0.74274      .   S
    C111   O220      0.65523      .   S
    C143   O220      0.65523      .   S
    C111   O221      0.75526  1_655   S
    C99    O221      0.75526      .   S
    C60    O222      0.64875      .   S
    C128   O222      0.64875  1_545   S
    C58    O223      0.69157      .   S
    C56    O223      0.69157      .   S
    C58    O224      0.54483      .   S
    C6     O224      0.54483      .   S
    C56    O225      0.54425      .   S
    C4     O225      0.54425      .   S
    C51    O226      0.54562      .   S
    C97    O226      0.54562      .   S
    C140   O227      0.64862      .   S
    C105   O227      0.64862      .   S
    C54    O228      0.67033  1_545   S
    C52    O228      0.67033      .   S
    C54    O229      0.75548      .   S
    C66    O229      0.75548      .   S
    C52    O230      0.54564      .   S
    C15    O230      0.54564      .   S
    C40    O231      0.54421      .   S
    C101   O231      0.54421      .   S
    C42    O232      0.54481      .   S
    C103   O232      0.54481      .   S
    C97    O233      0.67034      .   S
    C99    O233      0.67034      .   S
    C97    O234      0.74265      .   S
    C104   O234      0.74265      .   S
    C99    O235      0.72423      .   S
    C125   O235      0.72423      .   S
    C131   O236      0.65549      .   S
    C66    O236      0.65549      .   S
    C131   O237      0.96940      .   S
    C1     O237      0.96940      .   S
    C128   O238      0.98378  1_655   S
    C1     O238      0.98378      .   S
    C101   O239      0.69150      .   S
    C103   O239      0.69150      .   S
    C101   O240      0.70577      .   S
    C100   O240      0.70577      .   S
    C103   O241      0.67770      .   S
    C126   O241      0.67770      .   S
    C105   O242      0.77159      .   S
    C104   O242      0.77159      .   S
    C105   O243      0.62239      .   S
    C141   O243      0.62239      .   S
    C66    O244      0.61827  1_545   S
    C130   O244      0.61827      .   S
    C104   O245      0.55183      .   S
    C43    O245      0.55183      .   S
    C104   O246      0.54847      .   S
    C44    O246      0.54847      .   S
    C1     O247      1.03865      .   S
    C126   O247      1.03865      .   S
    C1     O248      1.00886      .   S
    C119   O248      1.00886      .   S
    C126   O249      0.67604      .   S
    C108   O249      0.67604  1_655   S
    C100   O250      0.69538      .   S
    C125   O250      0.69538      .   S
    C100   O251      0.70530      .   S
    C107   O251      0.70530  1_655   S
    C125   O252      0.70113  1_455   S
    C124   O252      0.70113      .   S
    C50    O253      0.51867      .   S
    C124   O253      0.51867      .   S
    C124   O254      0.68110      .   S
    C98    O254      0.68110      .   S
    C108   O255      0.69113      .   S
    C107   O255      0.69113      .   S
    C108   O256      0.54528      .   S
    C47    O256      0.54528      .   S
    C107   O257      0.54326      .   S
    C46    O257      0.54326      .   S
    C24    O258      0.54560      .   S
    C79    O258      0.54560      .   S
    C119   O259      0.67760      .   S
    C79    O259      0.67760  1_665   S
    C119   O260      0.68028      .   S
    C76    O260      0.68028      .   S
    C98    O261      0.70802      .   S
    C102   O261      0.70802      .   S
    C98    O262      0.70649      .   S
    C110   O262      0.70649  1_455   S
    C41    O263      0.54499      .   S
    C102   O263      0.54499      .   S
    C21    O264      0.54467      .   S
    C76    O264      0.54467      .   S
    C49    O265      0.54364      .   S
    C110   O265      0.54364      .   S
    C79    O266      0.69148      .   S
    C80    O266      0.69148      .   S
    C76    O267      0.68809      .   S
    C72    O267      0.68809      .   S
    C102   O268      0.68811      .   S
    C106   O268      0.68811      .   S
    C110   O269      0.69150      .   S
    C109   O269      0.69150      .   S
    C80    O270      0.54363      .   S
    C25    O270      0.54363      .   S
    C80    O271      0.70655  1_655   S
    C68    O271      0.70655      .   S
    C72    O272      0.54498      .   S
    C17    O272      0.54498      .   S
    C72    O273      0.70799      .   S
    C68    O273      0.70799  1_565   S
    C106   O274      0.54477      .   S
    C45    O274      0.54477      .   S
    C106   O275      0.68035      .   S
    C127   O275      0.68035      .   S
    C109   O276      0.67766  1_455   S
    C127   O276      0.67766      .   S
    C109   O277      0.54561      .   S
    C48    O277      0.54561      .   S
    C68    O278      0.68096      .   S
    C116   O278      0.68096      .   S
    C127   O279      1.00882      .   S
    C3     O279      1.00882      .   S
    C22    O280      0.54324      .   S
    C77    O280      0.54324      .   S
    C23    O281      0.54527      .   S
    C78    O281      0.54527      .   S
    C77    O282      0.69106      .   S
    C78    O282      0.69106      .   S
    C77    O283      0.70532      .   S
    C70    O283      0.70532  1_655   S
    C78    O284      0.67601  1_455   S
    C118   O284      0.67601      .   S
    C116   O285      0.51867      .   S
    C26    O285      0.51867      .   S
    C116   O286      0.70098      .   S
    C117   O286      0.70098  1_655   S
    C20    O287      0.54852      .   S
    C74    O287      0.54852      .   S
    C138   O288      0.61837      .   S
    C96    O288      0.61837      .   S
    C19    O289      0.55180      .   S
    C74    O289      0.55180      .   S
    C117   O290      0.69521      .   S
    C70    O290      0.69521      .   S
    C117   O291      0.72410      .   S
    C69    O291      0.72410  1_545   S
    C70    O292      0.70581      .   S
    C71    O292      0.70581      .   S
    C133   O293      0.62230      .   S
    C75    O293      0.62230  1_545   S
    C118   O294      1.03797      .   S
    C3     O294      1.03797      .   S
    C118   O295      0.67775      .   S
    C73    O295      0.67775      .   S
    C3     O296      0.98393      .   S
    C136   O296      0.98393  1_455   S
    C3     O297      0.96999      .   S
    C139   O297      0.96999      .   S
    C74    O298      0.77131      .   S
    C75    O298      0.77131      .   S
    C74    O299      0.74277      .   S
    C67    O299      0.74277      .   S
    C96    O300      0.65524      .   S
    C139   O300      0.65524      .   S
    C73    O301      0.69156      .   S
    C71    O301      0.69156      .   S
    C71    O302      0.54426      .   S
    C16    O302      0.54426      .   S
    C69    O303      0.67035      .   S
    C67    O303      0.67035      .   S
