# CIF file generated by openbabel 2.4.90, see http://openbabel.sf.net
data_I
_chemical_name_common 'VESTA_phase_1'
_cell_length_a 23.173
_cell_length_b 23.132
_cell_length_c 22.876
_cell_angle_alpha 89.923
_cell_angle_beta 90.038
_cell_angle_gamma 119.768
_space_group_name_H-M_alt 'P 1'
_space_group_name_Hall 'P 1'
loop_
    _symmetry_equiv_pos_as_xyz
    x,y,z
loop_
    _atom_site_label
    _atom_site_type_symbol
    _atom_site_fract_x
    _atom_site_fract_y
    _atom_site_fract_z
    _atom_site_occupancy
    Cd0     Cd   0.26104   0.38083   0.91680   1.000
    Cd1     Cd   0.26104   0.88082   0.91684   1.000
    Cd2     Cd   0.76103   0.38083   0.91684   1.000
    Cd3     Cd   0.76103   0.88082   0.91684   1.000
    Cd4     Cd   0.11890   0.23864   0.58320   1.000
    Cd5     Cd   0.11890   0.73863   0.58321   1.000
    Cd6     Cd   0.61889   0.23864   0.58320   1.000
    Cd7     Cd   0.61889   0.73863   0.58321   1.000
    Cd8     Cd   0.11929   0.38063   0.25002   1.000
    Cd9     Cd   0.11929   0.88062   0.25002   1.000
    Cd10    Cd   0.61928   0.38063   0.25002   1.000
    Cd11    Cd   0.61928   0.88062   0.25002   1.000
    Cd12    Cd   0.23876   0.11903   0.41682   1.000
    Cd13    Cd   0.23876   0.61902   0.41682   1.000
    Cd14    Cd   0.73875   0.11903   0.41682   1.000
    Cd15    Cd   0.73875   0.61902   0.41682   1.000
    Cd16    Cd   0.38118   0.26124   0.08330   1.000
    Cd17    Cd   0.38118   0.76123   0.08330   1.000
    Cd18    Cd   0.88117   0.26124   0.08330   1.000
    Cd19    Cd   0.88117   0.76123   0.08330   1.000
    Cd20    Cd   0.38079   0.11952   0.74997   1.000
    Cd21    Cd   0.38079   0.61951   0.74997   1.000
    Cd22    Cd   0.88078   0.11952   0.74997   1.000
    Cd23    Cd   0.88078   0.61951   0.74997   1.000
    B24     B    0.32329   0.32329   0.00020   1.000
    B25     B    0.32328   0.82328   0.00000   1.000
    B26     B    0.82327   0.32329   0.00000   1.000
    B27     B    0.82328   0.82328   0.00020   1.000
    B28     B    0.99973   0.17681   0.66645   1.000
    B29     B    0.99973   0.67680   0.66645   1.000
    B30     B    0.49972   0.17681   0.66640   1.000
    B31     B    0.49972   0.67680   0.66645   1.000
    B32     B    0.17671   0.99970   0.33357   1.000
    B33     B    0.17671   0.49970   0.33357   1.000
    B34     B    0.67670   0.99970   0.33357   1.000
    B35     B    0.67670   0.49970   0.33357   1.000
    B36     B    0.17653   0.17649   0.50008   1.000
    B37     B    0.17653   0.67648   0.50008   1.000
    B38     B    0.67652   0.17649   0.50008   1.000
    B39     B    0.67652   0.67648   0.50008   1.000
    B40     B    0.00047   0.32326   0.16635   1.000
    B41     B    0.00047   0.82325   0.16635   1.000
    B42     B    0.50046   0.32326   0.16635   1.000
    B43     B    0.50046   0.82325   0.16635   1.000
    B44     B    0.32312   0.00036   0.83361   1.000
    B45     B    0.32312   0.50035   0.83361   1.000
    B46     B    0.82311   0.00036   0.83361   1.000
    B47     B    0.82311   0.50035   0.83361   1.000
    H48     H    0.42773   0.41196   0.88901   1.000
    H49     H    0.42773   0.91195   0.88900   1.000
    H50     H    0.92772   0.41196   0.88900   1.000
    H51     H    0.92772   0.91195   0.88900   1.000
    H52     H    0.41049   0.33005   0.90890   1.000
    H53     H    0.41049   0.83004   0.90891   1.000
    H54     H    0.91048   0.33005   0.90891   1.000
    H55     H    0.91048   0.83004   0.90891   1.000
    H56     H    0.45194   0.39723   0.95939   1.000
    H57     H    0.45195   0.89722   0.95930   1.000
    H58     H    0.95194   0.39723   0.95938   1.000
    H59     H    0.95194   0.89722   0.95938   1.000
    H60     H    0.16185   0.27087   0.03134   1.000
    H61     H    0.16185   0.77086   0.03134   1.000
    H62     H    0.66184   0.27087   0.03134   1.000
    H63     H    0.66184   0.77086   0.03134   1.000
    H64     H    0.22315   0.31377   0.08657   1.000
    H65     H    0.22315   0.81376   0.08656   1.000
    H66     H    0.72314   0.31377   0.08656   1.000
    H67     H    0.72314   0.81376   0.08656   1.000
    H68     H    0.21263   0.23764   0.05697   1.000
    H69     H    0.21263   0.73763   0.05697   1.000
    H70     H    0.71262   0.23764   0.05697   1.000
    H71     H    0.71262   0.73763   0.05697   1.000
    H72     H    0.48373   0.07196   0.55536   1.000
    H73     H    0.48373   0.57195   0.55536   1.000
    H74     H    0.98372   0.07196   0.55536   1.000
    H75     H    0.98372   0.57195   0.55536   1.000
    H76     H    0.41949   0.08964   0.57560   1.000
    H77     H    0.41949   0.58963   0.57560   1.000
    H78     H    0.91948   0.08964   0.57560   1.000
    H79     H    0.91948   0.58963   0.57560   1.000
    H80     H    0.44531   0.04772   0.62584   1.000
    H81     H    0.44531   0.54771   0.62584   1.000
    H82     H    0.94530   0.04772   0.62584   1.000
    H83     H    0.94530   0.54771   0.62584   1.000
    H84     H    0.10865   0.33834   0.69771   1.000
    H85     H    0.10866   0.83833   0.69771   1.000
    H86     H    0.60864   0.33834   0.69771   1.000
    H87     H    0.60864   0.83833   0.69771   1.000
    H88     H    0.09012   0.27646   0.75269   1.000
    H89     H    0.09012   0.77645   0.75269   1.000
    H90     H    0.59011   0.27646   0.75269   1.000
    H91     H    0.59011   0.77645   0.75269   1.000
    H92     H    0.02503   0.28806   0.72342   1.000
    H93     H    0.02503   0.78805   0.72342   1.000
    H94     H    0.52502   0.28806   0.72342   1.000
    H95     H    0.52502   0.78805   0.72342   1.000
    H96     H    0.08808   0.01667   0.22259   1.000
    H97     H    0.08808   0.51666   0.22259   1.000
    H98     H    0.58807   0.01667   0.22259   1.000
    H99     H    0.58807   0.51666   0.22259   1.000
    H100    H    0.16976   0.08062   0.24268   1.000
    H101    H    0.16976   0.58062   0.24268   1.000
    H102    H    0.66975   0.08062   0.24268   1.000
    H103    H    0.66975   0.58062   0.24268   1.000
    H104    H    0.10255   0.05516   0.29306   1.000
    H105    H    0.10255   0.55515   0.29306   1.000
    H106    H    0.60254   0.05516   0.29306   1.000
    H107    H    0.60254   0.55515   0.29306   1.000
    H108    H    0.22923   0.39002   0.36442   1.000
    H109    H    0.22923   0.89001   0.36442   1.000
    H110    H    0.72922   0.39002   0.36442   1.000
    H111    H    0.72922   0.89001   0.36442   1.000
    H112    H    0.18625   0.40850   0.41970   1.000
    H113    H    0.18625   0.90849   0.41970   1.000
    H114    H    0.68624   0.40850   0.41970   1.000
    H115    H    0.68624   0.90849   0.41970   1.000
    H116    H    0.26229   0.47374   0.39023   1.000
    H117    H    0.26229   0.97373   0.39023   1.000
    H118    H    0.76228   0.47374   0.39023   1.000
    H119    H    0.76228   0.97373   0.39023   1.000
    H120    H    0.07207   0.08805   0.38894   1.000
    H121    H    0.07208   0.58805   0.38894   1.000
    H122    H    0.57206   0.08805   0.38894   1.000
    H123    H    0.57207   0.58805   0.38895   1.000
    H124    H    0.08945   0.16996   0.40883   1.000
    H125    H    0.08945   0.66995   0.40883   1.000
    H126    H    0.58943   0.16996   0.40880   1.000
    H127    H    0.58944   0.66995   0.40883   1.000
    H128    H    0.04780   0.10265   0.45928   1.000
    H129    H    0.04781   0.60264   0.45928   1.000
    H130    H    0.54779   0.10265   0.45920   1.000
    H131    H    0.54780   0.60264   0.45928   1.000
    H132    H    0.33801   0.22899   0.53120   1.000
    H133    H    0.33801   0.72898   0.53120   1.000
    H134    H    0.83800   0.22899   0.53120   1.000
    H135    H    0.83800   0.72898   0.53121   1.000
    H136    H    0.27669   0.18600   0.58644   1.000
    H137    H    0.27669   0.68599   0.58645   1.000
    H138    H    0.77668   0.18600   0.58644   1.000
    H139    H    0.77668   0.68599   0.58645   1.000
    H140    H    0.28718   0.26214   0.55673   1.000
    H141    H    0.28719   0.76213   0.55673   1.000
    H142    H    0.78717   0.26214   0.55673   1.000
    H143    H    0.78717   0.76213   0.55673   1.000
    H144    H    0.01627   0.42817   0.05511   1.000
    H145    H    0.01627   0.92816   0.05511   1.000
    H146    H    0.51626   0.42817   0.05511   1.000
    H147    H    0.51626   0.92816   0.05511   1.000
    H148    H    0.08068   0.41070   0.07535   1.000
    H149    H    0.08068   0.91069   0.07535   1.000
    H150    H    0.58067   0.41070   0.07535   1.000
    H151    H    0.58067   0.91069   0.07535   1.000
    H152    H    0.05464   0.45228   0.12561   1.000
    H153    H    0.05465   0.95227   0.12561   1.000
    H154    H    0.55463   0.45228   0.12561   1.000
    H155    H    0.55464   0.95227   0.12561   1.000
    H156    H    0.39158   0.16168   0.19787   1.000
    H157    H    0.39158   0.66167   0.19787   1.000
    H158    H    0.89157   0.16168   0.19787   1.000
    H159    H    0.89157   0.66167   0.19787   1.000
    H160    H    0.41002   0.22345   0.25278   1.000
    H161    H    0.41002   0.72344   0.25278   1.000
    H162    H    0.91000   0.22345   0.25278   1.000
    H163    H    0.91000   0.72344   0.25278   1.000
    H164    H    0.47518   0.21201   0.22360   1.000
    H165    H    0.47518   0.71200   0.22360   1.000
    H166    H    0.97517   0.21201   0.22360   1.000
    H167    H    0.97517   0.71200   0.22360   1.000
    H168    H    0.41187   0.48356   0.72280   1.000
    H169    H    0.41187   0.98355   0.72280   1.000
    H170    H    0.91186   0.48356   0.72280   1.000
    H171    H    0.91186   0.98355   0.72280   1.000
    H172    H    0.33015   0.41961   0.74288   1.000
    H173    H    0.33016   0.91960   0.74288   1.000
    H174    H    0.83015   0.41961   0.74288   1.000
    H175    H    0.83015   0.91960   0.74288   1.000
    H176    H    0.39735   0.44492   0.79320   1.000
    H177    H    0.39735   0.94491   0.79320   1.000
    H178    H    0.89734   0.44492   0.79320   1.000
    H179    H    0.89734   0.94491   0.79320   1.000
    H180    H    0.27081   0.11014   0.86435   1.000
    H181    H    0.27081   0.61013   0.86435   1.000
    H182    H    0.77080   0.11014   0.86435   1.000
    H183    H    0.77080   0.61013   0.86435   1.000
    H184    H    0.31382   0.09143   0.91955   1.000
    H185    H    0.31382   0.59142   0.91955   1.000
    H186    H    0.81381   0.09143   0.91955   1.000
    H187    H    0.81381   0.59142   0.91955   1.000
    H188    H    0.23762   0.02636   0.89024   1.000
    H189    H    0.23762   0.52635   0.89024   1.000
    H190    H    0.73761   0.02636   0.89024   1.000
    H191    H    0.73761   0.52635   0.89024   1.000
    H192    H    0.01637   0.08786   0.77746   1.000
    H193    H    0.01638   0.58785   0.77746   1.000
    H194    H    0.51636   0.08786   0.77746   1.000
    H195    H    0.51636   0.58785   0.77746   1.000
    H196    H    0.08035   0.16964   0.75733   1.000
    H197    H    0.08035   0.66963   0.75733   1.000
    H198    H    0.58034   0.16964   0.75733   1.000
    H199    H    0.58034   0.66963   0.75733   1.000
    H200    H    0.05482   0.10234   0.70697   1.000
    H201    H    0.05482   0.60233   0.70697   1.000
    H202    H    0.55481   0.10234   0.70697   1.000
    H203    H    0.55481   0.60233   0.70697   1.000
    H204    H    0.39037   0.22955   0.63542   1.000
    H205    H    0.39037   0.72954   0.63542   1.000
    H206    H    0.89036   0.22955   0.63542   1.000
    H207    H    0.89036   0.72954   0.63542   1.000
    H208    H    0.40880   0.18640   0.58022   1.000
    H209    H    0.40880   0.68639   0.58022   1.000
    H210    H    0.90879   0.18640   0.58022   1.000
    H211    H    0.90879   0.68639   0.58022   1.000
    H212    H    0.47395   0.26258   0.60957   1.000
    H213    H    0.47395   0.76257   0.60957   1.000
    H214    H    0.97394   0.26258   0.60957   1.000
    H215    H    0.97394   0.76257   0.60957   1.000
    H216    H    0.41207   0.42818   0.11100   1.000
    H217    H    0.41207   0.92817   0.11100   1.000
    H218    H    0.91206   0.42818   0.11000   1.000
    H219    H    0.91206   0.92817   0.11000   1.000
    H220    H    0.33024   0.41067   0.09111   1.000
    H221    H    0.33024   0.91066   0.09111   1.000
    H222    H    0.83023   0.41067   0.09111   1.000
    H223    H    0.83023   0.91066   0.09111   1.000
    H224    H    0.39734   0.45250   0.04060   1.000
    H225    H    0.39734   0.95249   0.04065   1.000
    H226    H    0.89733   0.45250   0.04065   1.000
    H227    H    0.89733   0.95249   0.04065   1.000
    H228    H    0.27099   0.16153   0.96910   1.000
    H229    H    0.27099   0.66152   0.96910   1.000
    H230    H    0.77098   0.16153   0.96910   1.000
    H231    H    0.77098   0.66152   0.96910   1.000
    H232    H    0.31409   0.22328   0.91411   1.000
    H233    H    0.31409   0.72327   0.91411   1.000
    H234    H    0.81408   0.22328   0.91411   1.000
    H235    H    0.81408   0.72327   0.91411   1.000
    H236    H    0.23782   0.21238   0.94340   1.000
    H237    H    0.23782   0.71237   0.94340   1.000
    H238    H    0.73781   0.21238   0.94340   1.000
    H239    H    0.73781   0.71237   0.94340   1.000
    H240    H    0.07208   0.48368   0.44473   1.000
    H241    H    0.07208   0.98367   0.44473   1.000
    H242    H    0.57207   0.48368   0.44473   1.000
    H243    H    0.57207   0.98367   0.44473   1.000
    H244    H    0.08960   0.41926   0.42446   1.000
    H245    H    0.08960   0.91925   0.42446   1.000
    H246    H    0.58959   0.41926   0.42446   1.000
    H247    H    0.58959   0.91925   0.42446   1.000
    H248    H    0.04793   0.44533   0.37424   1.000
    H249    H    0.04793   0.94532   0.37424   1.000
    H250    H    0.54792   0.44533   0.37424   1.000
    H251    H    0.54792   0.94532   0.37424   1.000
    H252    H    0.33805   0.10858   0.30221   1.000
    H253    H    0.33805   0.60857   0.30221   1.000
    H254    H    0.83804   0.10858   0.30221   1.000
    H255    H    0.83804   0.60857   0.30221   1.000
    H256    H    0.27640   0.09020   0.24721   1.000
    H257    H    0.27640   0.59019   0.24721   1.000
    H258    H    0.77638   0.09020   0.24721   1.000
    H259    H    0.77639   0.59019   0.24721   1.000
    H260    H    0.28770   0.02484   0.27650   1.000
    H261    H    0.28770   0.52483   0.27657   1.000
    H262    H    0.78769   0.02484   0.27650   1.000
    H263    H    0.78769   0.52483   0.27657   1.000
    H264    H    0.48364   0.41200   0.27720   1.000
    H265    H    0.48364   0.91199   0.27720   1.000
    H266    H    0.98363   0.41200   0.27720   1.000
    H267    H    0.98363   0.91199   0.27720   1.000
    H268    H    0.41981   0.33018   0.25709   1.000
    H269    H    0.41981   0.83017   0.25709   1.000
    H270    H    0.91980   0.33018   0.25709   1.000
    H271    H    0.91980   0.83017   0.25709   1.000
    H272    H    0.44516   0.39759   0.20672   1.000
    H273    H    0.44516   0.89758   0.20672   1.000
    H274    H    0.94514   0.39759   0.20672   1.000
    H275    H    0.94515   0.89758   0.20672   1.000
    H276    H    0.10985   0.27062   0.13555   1.000
    H277    H    0.10985   0.77061   0.13555   1.000
    H278    H    0.60984   0.27062   0.13555   1.000
    H279    H    0.60984   0.77061   0.13555   1.000
    H280    H    0.09132   0.31381   0.08032   1.000
    H281    H    0.09132   0.81380   0.08032   1.000
    H282    H    0.59131   0.31381   0.08032   1.000
    H283    H    0.59131   0.81380   0.08032   1.000
    H284    H    0.02625   0.23753   0.10972   1.000
    H285    H    0.02625   0.73752   0.10972   1.000
    H286    H    0.52624   0.23753   0.10972   1.000
    H287    H    0.52624   0.73752   0.10972   1.000
    H288    H    0.08790   0.07162   0.61111   1.000
    H289    H    0.08790   0.57161   0.61111   1.000
    H290    H    0.58789   0.07162   0.61111   1.000
    H291    H    0.58789   0.57161   0.61110   1.000
    H292    H    0.16970   0.08910   0.59123   1.000
    H293    H    0.16970   0.58909   0.59123   1.000
    H294    H    0.66969   0.08910   0.59123   1.000
    H295    H    0.66968   0.58909   0.59123   1.000
    H296    H    0.10255   0.04731   0.54080   1.000
    H297    H    0.10255   0.54730   0.54083   1.000
    H298    H    0.60254   0.04731   0.54082   1.000
    H299    H    0.60254   0.54729   0.54083   1.000
    H300    H    0.22910   0.33835   0.46889   1.000
    H301    H    0.22910   0.83834   0.46890   1.000
    H302    H    0.72909   0.33835   0.46889   1.000
    H303    H    0.72909   0.83834   0.46890   1.000
    H304    H    0.18605   0.27682   0.41383   1.000
    H305    H    0.18605   0.77681   0.41380   1.000
    H306    H    0.68604   0.27683   0.41383   1.000
    H307    H    0.68604   0.77681   0.41384   1.000
    H308    H    0.26214   0.28741   0.44332   1.000
    H309    H    0.26215   0.78740   0.44332   1.000
    H310    H    0.76213   0.28741   0.44332   1.000
    H311    H    0.76213   0.78740   0.44333   1.000
    H312    H    0.42776   0.01607   0.94478   1.000
    H313    H    0.42776   0.51606   0.94478   1.000
    H314    H    0.92775   0.01607   0.94478   1.000
    H315    H    0.92775   0.51606   0.94478   1.000
    H316    H    0.41041   0.08066   0.92450   1.000
    H317    H    0.41041   0.58065   0.92450   1.000
    H318    H    0.91040   0.08066   0.92450   1.000
    H319    H    0.91040   0.58065   0.92450   1.000
    H320    H    0.45185   0.05449   0.87423   1.000
    H321    H    0.45185   0.55448   0.87423   1.000
    H322    H    0.95184   0.05449   0.87423   1.000
    H323    H    0.95184   0.55448   0.87423   1.000
    H324    H    0.16185   0.39147   0.80214   1.000
    H325    H    0.16185   0.89146   0.80214   1.000
    H326    H    0.66184   0.39147   0.80214   1.000
    H327    H    0.66184   0.89146   0.80214   1.000
    H328    H    0.22356   0.40994   0.74722   1.000
    H329    H    0.22356   0.90993   0.74722   1.000
    H330    H    0.72355   0.40994   0.74722   1.000
    H331    H    0.72355   0.90993   0.74720   1.000
    H332    H    0.21222   0.47525   0.77643   1.000
    H333    H    0.21222   0.97524   0.77643   1.000
    H334    H    0.71221   0.47525   0.77643   1.000
    H335    H    0.71221   0.97524   0.77643   1.000
    C336    C    0.47823   0.25213   0.96779   1.000
    C337    C    0.47823   0.75212   0.96779   1.000
    C338    C    0.97822   0.25213   0.96779   1.000
    C339    C    0.97822   0.75212   0.96779   1.000
    C340    C    0.41333   0.37623   0.92522   1.000
    C341    C    0.41334   0.87622   0.92522   1.000
    C342    C    0.91332   0.37623   0.92522   1.000
    C343    C    0.91333   0.87622   0.92522   1.000
    C344    C    0.21176   0.28365   0.04645   1.000
    C345    C    0.21176   0.78364   0.04645   1.000
    C346    C    0.71175   0.28365   0.04645   1.000
    C347    C    0.71175   0.78364   0.04645   1.000
    C348    C    0.27499   0.02193   0.63457   1.000
    C349    C    0.27499   0.52193   0.63457   1.000
    C350    C    0.77498   0.02194   0.63457   1.000
    C351    C    0.77498   0.52193   0.63457   1.000
    C352    C    0.46270   0.08648   0.59170   1.000
    C353    C    0.46270   0.58647   0.59170   1.000
    C354    C    0.96269   0.08648   0.59170   1.000
    C355    C    0.96269   0.58647   0.59170   1.000
    C356    C    0.07150   0.28841   0.71271   1.000
    C357    C    0.07150   0.78840   0.71271   1.000
    C358    C    0.57149   0.28841   0.71271   1.000
    C359    C    0.57149   0.78840   0.71271   1.000
    C360    C    0.24761   0.22523   0.30119   1.000
    C361    C    0.24762   0.72522   0.30119   1.000
    C362    C    0.74760   0.22523   0.30119   1.000
    C363    C    0.74760   0.72522   0.30119   1.000
    C364    C    0.12363   0.03753   0.25887   1.000
    C365    C    0.12363   0.53752   0.25887   1.000
    C366    C    0.62362   0.03753   0.25887   1.000
    C367    C    0.62362   0.53752   0.25887   1.000
    C368    C    0.21640   0.42723   0.37962   1.000
    C369    C    0.21640   0.92722   0.37962   1.000
    C370    C    0.71639   0.42723   0.37962   1.000
    C371    C    0.71639   0.92722   0.37962   1.000
    C372    C    0.02173   0.24793   0.46785   1.000
    C373    C    0.02174   0.74792   0.46785   1.000
    C374    C    0.52172   0.24793   0.46785   1.000
    C375    C    0.52173   0.74792   0.46785   1.000
    C376    C    0.08647   0.12369   0.42516   1.000
    C377    C    0.08647   0.62368   0.42516   1.000
    C378    C    0.58646   0.12369   0.42515   1.000
    C379    C    0.58647   0.62368   0.42516   1.000
    C380    C    0.28808   0.21616   0.54629   1.000
    C381    C    0.28808   0.71615   0.54629   1.000
    C382    C    0.78807   0.21616   0.54628   1.000
    C383    C    0.78807   0.71614   0.54629   1.000
    C384    C    0.22494   0.47807   0.13445   1.000
    C385    C    0.22494   0.97806   0.13445   1.000
    C386    C    0.72493   0.47807   0.13445   1.000
    C387    C    0.72493   0.97806   0.13445   1.000
    C388    C    0.03738   0.41363   0.09145   1.000
    C389    C    0.03738   0.91363   0.09145   1.000
    C390    C    0.53737   0.41364   0.09145   1.000
    C391    C    0.53737   0.91363   0.09145   1.000
    C392    C    0.42868   0.21161   0.21284   1.000
    C393    C    0.42868   0.71160   0.21284   1.000
    C394    C    0.92867   0.21161   0.21284   1.000
    C395    C    0.92867   0.71160   0.21284   1.000
    C396    C    0.25236   0.27478   0.80125   1.000
    C397    C    0.25236   0.77477   0.80125   1.000
    C398    C    0.75235   0.27478   0.80125   1.000
    C399    C    0.75235   0.77477   0.80125   1.000
    C400    C    0.37631   0.46265   0.75906   1.000
    C401    C    0.37631   0.96264   0.75906   1.000
    C402    C    0.87630   0.46265   0.75906   1.000
    C403    C    0.87630   0.96264   0.75906   1.000
    C404    C    0.28355   0.07282   0.87953   1.000
    C405    C    0.28355   0.57281   0.87953   1.000
    C406    C    0.78354   0.07282   0.87953   1.000
    C407    C    0.78354   0.57281   0.87953   1.000
    C408    C    0.22480   0.24722   0.69897   1.000
    C409    C    0.22480   0.74721   0.69897   1.000
    C410    C    0.72479   0.24722   0.69897   1.000
    C411    C    0.72479   0.74721   0.69897   1.000
    C412    C    0.03727   0.12349   0.74117   1.000
    C413    C    0.03727   0.62348   0.74117   1.000
    C414    C    0.53726   0.12349   0.74117   1.000
    C415    C    0.53726   0.62348   0.74117   1.000
    C416    C    0.42749   0.21664   0.62025   1.000
    C417    C    0.42750   0.71663   0.62025   1.000
    C418    C    0.92748   0.21664   0.62025   1.000
    C419    C    0.92749   0.71663   0.62025   1.000
    C420    C    0.25178   0.47808   0.03200   1.000
    C421    C    0.25178   0.97807   0.03202   1.000
    C422    C    0.75177   0.47808   0.03202   1.000
    C423    C    0.75177   0.97807   0.03202   1.000
    C424    C    0.37643   0.41373   0.07479   1.000
    C425    C    0.37643   0.91372   0.07479   1.000
    C426    C    0.87642   0.41373   0.07479   1.000
    C427    C    0.87642   0.91372   0.07479   1.000
    C428    C    0.28374   0.21158   0.95410   1.000
    C429    C    0.28374   0.71157   0.95410   1.000
    C430    C    0.78373   0.21158   0.95410   1.000
    C431    C    0.78373   0.71157   0.95410   1.000
    C432    C    0.02168   0.27473   0.36541   1.000
    C433    C    0.02168   0.77472   0.36541   1.000
    C434    C    0.52167   0.27473   0.36541   1.000
    C435    C    0.52167   0.77472   0.36541   1.000
    C436    C    0.08657   0.46262   0.40838   1.000
    C437    C    0.08657   0.96261   0.40838   1.000
    C438    C    0.58656   0.46262   0.40838   1.000
    C439    C    0.58656   0.96261   0.40838   1.000
    C440    C    0.28819   0.07147   0.28722   1.000
    C441    C    0.28819   0.57146   0.28722   1.000
    C442    C    0.78818   0.07147   0.28722   1.000
    C443    C    0.78818   0.57146   0.28722   1.000
    C444    C    0.27512   0.25265   0.19887   1.000
    C445    C    0.27512   0.75264   0.19887   1.000
    C446    C    0.77511   0.25265   0.19887   1.000
    C447    C    0.77511   0.75264   0.19887   1.000
    C448    C    0.46280   0.37644   0.24092   1.000
    C449    C    0.46280   0.87643   0.24092   1.000
    C450    C    0.96279   0.37644   0.24092   1.000
    C451    C    0.96279   0.87643   0.24092   1.000
    C452    C    0.07268   0.28349   0.12037   1.000
    C453    C    0.07268   0.78348   0.12037   1.000
    C454    C    0.57267   0.28349   0.12037   1.000
    C455    C    0.57267   0.78348   0.12037   1.000
    C456    C    0.24818   0.02185   0.53210   1.000
    C457    C    0.24819   0.52184   0.53210   1.000
    C458    C    0.74817   0.02185   0.53210   1.000
    C459    C    0.74818   0.52184   0.53200   1.000
    C460    C    0.12350   0.08607   0.57489   1.000
    C461    C    0.12350   0.58606   0.57489   1.000
    C462    C    0.62349   0.08607   0.57489   1.000
    C463    C    0.62349   0.58606   0.57489   1.000
    C464    C    0.21626   0.28831   0.45390   1.000
    C465    C    0.21626   0.78830   0.45390   1.000
    C466    C    0.71625   0.28831   0.45300   1.000
    C467    C    0.71625   0.78830   0.45390   1.000
    C468    C    0.47830   0.22516   0.86540   1.000
    C469    C    0.47830   0.72516   0.86540   1.000
    C470    C    0.97829   0.22516   0.86540   1.000
    C471    C    0.97829   0.72516   0.86540   1.000
    C472    C    0.41328   0.03724   0.90843   1.000
    C473    C    0.41328   0.53723   0.90843   1.000
    C474    C    0.91327   0.03724   0.90843   1.000
    C475    C    0.91327   0.53723   0.90843   1.000
    C476    C    0.21173   0.42860   0.78717   1.000
    C477    C    0.21173   0.92860   0.78717   1.000
    C478    C    0.71172   0.42861   0.78717   1.000
    C479    C    0.71172   0.92860   0.78717   1.000
    C480    C    0.01335   0.25626   0.91658   1.000
    C481    C    0.01335   0.75625   0.91658   1.000
    C482    C    0.51334   0.25626   0.91658   1.000
    C483    C    0.51334   0.75626   0.91658   1.000
    C484    C    0.08308   0.29139   0.91654   1.000
    C485    C    0.08308   0.79138   0.91654   1.000
    C486    C    0.58306   0.29139   0.91654   1.000
    C487    C    0.58307   0.79138   0.91654   1.000
    C488    C    0.24390   0.48676   0.58346   1.000
    C489    C    0.24390   0.98675   0.58346   1.000
    C490    C    0.74389   0.48676   0.58346   1.000
    C491    C    0.74389   0.98675   0.58346   1.000
    C492    C    0.20856   0.41691   0.58363   1.000
    C493    C    0.20856   0.91691   0.58363   1.000
    C494    C    0.70855   0.41691   0.58363   1.000
    C495    C    0.70854   0.91691   0.58363   1.000
    C496    C    0.24374   0.25648   0.24995   1.000
    C497    C    0.24374   0.75647   0.24995   1.000
    C498    C    0.74373   0.25648   0.24995   1.000
    C499    C    0.74373   0.75647   0.24995   1.000
    C500    C    0.20863   0.29139   0.24987   1.000
    C501    C    0.20863   0.79138   0.24987   1.000
    C502    C    0.70862   0.29139   0.24987   1.000
    C503    C    0.70862   0.79138   0.24987   1.000
    C504    C    0.48659   0.24369   0.41660   1.000
    C505    C    0.48659   0.74368   0.41660   1.000
    C506    C    0.98658   0.24369   0.41660   1.000
    C507    C    0.98658   0.74369   0.41660   1.000
    C508    C    0.41686   0.20855   0.41655   1.000
    C509    C    0.41686   0.70854   0.41655   1.000
    C510    C    0.91685   0.20855   0.41655   1.000
    C511    C    0.91685   0.70854   0.41655   1.000
    C512    C    0.25617   0.01318   0.08331   1.000
    C513    C    0.25616   0.51317   0.08330   1.000
    C514    C    0.75615   0.01318   0.08330   1.000
    C515    C    0.75616   0.51317   0.08330   1.000
    C516    C    0.29172   0.08302   0.08350   1.000
    C517    C    0.29172   0.58301   0.08350   1.000
    C518    C    0.79171   0.08302   0.08350   1.000
    C519    C    0.79171   0.58301   0.08350   1.000
    C520    C    0.25631   0.24360   0.75008   1.000
    C521    C    0.25631   0.74359   0.75008   1.000
    C522    C    0.75630   0.24360   0.75008   1.000
    C523    C    0.75630   0.74359   0.75008   1.000
    C524    C    0.29162   0.20889   0.74999   1.000
    C525    C    0.29162   0.70888   0.74999   1.000
    C526    C    0.79161   0.20889   0.74990   1.000
    C527    C    0.79161   0.70888   0.74999   1.000
    N528    N    0.44860   0.24783   0.01064   1.000
    N529    N    0.44860   0.74782   0.01064   1.000
    N530    N    0.94859   0.24783   0.01064   1.000
    N531    N    0.94859   0.74782   0.01064   1.000
    N532    N    0.30043   0.05167   0.67729   1.000
    N533    N    0.30043   0.55166   0.67729   1.000
    N534    N    0.80042   0.05167   0.67729   1.000
    N535    N    0.80042   0.55166   0.67729   1.000
    N536    N    0.25162   0.19971   0.34412   1.000
    N537    N    0.25163   0.69970   0.34412   1.000
    N538    N    0.75161   0.19971   0.34412   1.000
    N539    N    0.75161   0.69970   0.34412   1.000
    N540    N    0.05141   0.25235   0.51071   1.000
    N541    N    0.05141   0.75234   0.51071   1.000
    N542    N    0.55140   0.25235   0.51071   1.000
    N543    N    0.55141   0.75234   0.51071   1.000
    N544    N    0.19941   0.44847   0.17725   1.000
    N545    N    0.19941   0.94846   0.17725   1.000
    N546    N    0.69940   0.44847   0.17725   1.000
    N547    N    0.69940   0.94846   0.17725   1.000
    N548    N    0.24828   0.30027   0.84410   1.000
    N549    N    0.24828   0.80026   0.84410   1.000
    N550    N    0.74827   0.30027   0.84410   1.000
    N551    N    0.74827   0.80026   0.84410   1.000
    N552    N    0.19903   0.25099   0.65615   1.000
    N553    N    0.19903   0.75098   0.65615   1.000
    N554    N    0.69902   0.25099   0.65615   1.000
    N555    N    0.69902   0.75098   0.65615   1.000
    N556    N    0.24725   0.44846   0.98907   1.000
    N557    N    0.24725   0.94845   0.98907   1.000
    N558    N    0.74724   0.44846   0.98907   1.000
    N559    N    0.74725   0.94845   0.98907   1.000
    N560    N    0.05138   0.30010   0.32262   1.000
    N561    N    0.05138   0.80009   0.32262   1.000
    N562    N    0.55137   0.30010   0.32262   1.000
    N563    N    0.55137   0.80009   0.32262   1.000
    N564    N    0.30080   0.24863   0.15614   1.000
    N565    N    0.30080   0.74862   0.15614   1.000
    N566    N    0.80079   0.24863   0.15614   1.000
    N567    N    0.80079   0.74862   0.15614   1.000
    N568    N    0.25261   0.05139   0.48908   1.000
    N569    N    0.25261   0.55138   0.48908   1.000
    N570    N    0.75259   0.05139   0.48908   1.000
    N571    N    0.75260   0.55138   0.48908   1.000
    N572    N    0.44866   0.19972   0.82267   1.000
    N573    N    0.44866   0.69971   0.82260   1.000
    N574    N    0.94865   0.19972   0.82267   1.000
    N575    N    0.94865   0.69971   0.82267   1.000
    N576    N    0.14136   0.32077   0.91652   1.000
    N577    N    0.14136   0.82077   0.91652   1.000
    N578    N    0.64135   0.32078   0.91652   1.000
    N579    N    0.64135   0.82077   0.91652   1.000
    N580    N    0.17894   0.35853   0.58369   1.000
    N581    N    0.17894   0.85852   0.58369   1.000
    N582    N    0.67893   0.35853   0.58369   1.000
    N583    N    0.67893   0.85853   0.58369   1.000
    N584    N    0.17927   0.32056   0.24986   1.000
    N585    N    0.17927   0.82055   0.24986   1.000
    N586    N    0.67926   0.32056   0.24986   1.000
    N587    N    0.67926   0.82055   0.24986   1.000
    N588    N    0.35858   0.17914   0.41652   1.000
    N589    N    0.35858   0.67914   0.41652   1.000
    N590    N    0.85857   0.17914   0.41652   1.000
    N591    N    0.85857   0.67914   0.41652   1.000
    N592    N    0.32151   0.14140   0.08369   1.000
    N593    N    0.32151   0.64139   0.08369   1.000
    N594    N    0.82149   0.14140   0.08369   1.000
    N595    N    0.82149   0.64139   0.08369   1.000
    N596    N    0.32114   0.17987   0.74987   1.000
    N597    N    0.32114   0.67986   0.74987   1.000
    N598    N    0.82113   0.17987   0.74987   1.000
    N599    N    0.82113   0.67986   0.74987   1.000
    O600    O    0.35109   0.36439   0.94718   1.000
    O601    O    0.35109   0.86438   0.94718   1.000
    O602    O    0.85108   0.36439   0.94718   1.000
    O603    O    0.85108   0.86438   0.94718   1.000
    O604    O    0.25783   0.31957   0.00000   1.000
    O605    O    0.25782   0.81956   0.00000   1.000
    O606    O    0.75781   0.31957   0.00000   1.000
    O607    O    0.75781   0.81956   0.00000   1.000
    O608    O    0.01303   0.14868   0.61362   1.000
    O609    O    0.01303   0.64867   0.61362   1.000
    O610    O    0.51302   0.14868   0.61362   1.000
    O611    O    0.51302   0.64867   0.61362   1.000
    O612    O    0.06098   0.24239   0.66722   1.000
    O613    O    0.06098   0.74238   0.66722   1.000
    O614    O    0.56097   0.24239   0.66722   1.000
    O615    O    0.56097   0.74238   0.66722   1.000
    O616    O    0.13541   0.48680   0.28070   1.000
    O617    O    0.13541   0.98679   0.28070   1.000
    O618    O    0.63540   0.48680   0.28070   1.000
    O619    O    0.63540   0.98679   0.28070   1.000
    O620    O    0.18061   0.43791   0.33439   1.000
    O621    O    0.18061   0.93790   0.33439   1.000
    O622    O    0.68060   0.43791   0.33439   1.000
    O623    O    0.68060   0.93790   0.33439   1.000
    O624    O    0.14864   0.13534   0.44720   1.000
    O625    O    0.14864   0.63533   0.44720   1.000
    O626    O    0.64863   0.13533   0.44720   1.000
    O627    O    0.64863   0.63533   0.44720   1.000
    O628    O    0.24203   0.18028   0.50103   1.000
    O629    O    0.24203   0.68027   0.50103   1.000
    O630    O    0.74202   0.18028   0.50102   1.000
    O631    O    0.74202   0.68026   0.50104   1.000
    O632    O    0.48718   0.35129   0.11334   1.000
    O633    O    0.48718   0.85128   0.11334   1.000
    O634    O    0.98717   0.35129   0.11334   1.000
    O635    O    0.98717   0.85128   0.11334   1.000
    O636    O    0.43916   0.25769   0.16700   1.000
    O637    O    0.43916   0.75768   0.16700   1.000
    O638    O    0.93915   0.25769   0.16700   1.000
    O639    O    0.93915   0.75768   0.16700   1.000
    O640    O    0.36457   0.01336   0.78088   1.000
    O641    O    0.36457   0.51335   0.78088   1.000
    O642    O    0.86456   0.01336   0.78088   1.000
    O643    O    0.86456   0.51335   0.78088   1.000
    O644    O    0.31913   0.06208   0.83423   1.000
    O645    O    0.31913   0.56207   0.83423   1.000
    O646    O    0.81912   0.06208   0.83423   1.000
    O647    O    0.81912   0.56207   0.83423   1.000
    O648    O    0.48673   0.13545   0.71935   1.000
    O649    O    0.48673   0.63544   0.71935   1.000
    O650    O    0.98672   0.13545   0.71935   1.000
    O651    O    0.98672   0.63544   0.71935   1.000
    O652    O    0.43809   0.18080   0.66555   1.000
    O653    O    0.43809   0.68079   0.66555   1.000
    O654    O    0.93808   0.18080   0.66555   1.000
    O655    O    0.93808   0.68079   0.66555   1.000
    O656    O    0.36489   0.35150   0.05270   1.000
    O657    O    0.36488   0.85149   0.05270   1.000
    O658    O    0.86487   0.35150   0.05270   1.000
    O659    O    0.86487   0.85149   0.05270   1.000
    O660    O    0.31919   0.25753   0.99959   1.000
    O661    O    0.31919   0.75752   0.99950   1.000
    O662    O    0.81918   0.25753   0.99958   1.000
    O663    O    0.81918   0.75752   0.99958   1.000
    O664    O    0.14873   0.01301   0.38648   1.000
    O665    O    0.14873   0.51300   0.38648   1.000
    O666    O    0.64872   0.01301   0.38648   1.000
    O667    O    0.64872   0.51301   0.38648   1.000
    O668    O    0.24221   0.06104   0.33269   1.000
    O669    O    0.24221   0.56103   0.33269   1.000
    O670    O    0.74220   0.06104   0.33269   1.000
    O671    O    0.74220   0.56103   0.33269   1.000
    O672    O    0.01345   0.36472   0.21909   1.000
    O673    O    0.01345   0.86471   0.21909   1.000
    O674    O    0.51344   0.36472   0.21909   1.000
    O675    O    0.51344   0.86471   0.21909   1.000
    O676    O    0.06204   0.31920   0.16564   1.000
    O677    O    0.06204   0.81919   0.16564   1.000
    O678    O    0.56203   0.31920   0.16564   1.000
    O679    O    0.56203   0.81919   0.16564   1.000
    O680    O    0.13506   0.14831   0.55270   1.000
    O681    O    0.13506   0.64830   0.55277   1.000
    O682    O    0.63505   0.14832   0.55270   1.000
    O683    O    0.63504   0.64830   0.55277   1.000
    O684    O    0.18059   0.24224   0.49930   1.000
    O685    O    0.18060   0.74223   0.49931   1.000
    O686    O    0.68058   0.24224   0.49930   1.000
    O687    O    0.68059   0.74223   0.49931   1.000
    O688    O    0.35102   0.48700   0.88664   1.000
    O689    O    0.35102   0.98699   0.88664   1.000
    O690    O    0.85101   0.48700   0.88664   1.000
    O691    O    0.85101   0.98699   0.88664   1.000
    O692    O    0.25766   0.43897   0.83269   1.000
    O693    O    0.25766   0.93896   0.83269   1.000
    O694    O    0.75765   0.43897   0.83269   1.000
    O695    O    0.75765   0.93896   0.83269   1.000
loop_
    _geom_bond_atom_site_label_1
    _geom_bond_atom_site_label_2
    _geom_bond_distance
    _geom_bond_site_symmetry_2
    _ccdc_geom_bond_type
    O607   B27       1.47616      .   S
    O607   C347      1.44125      .   S
    O604   B24       1.47615      .   S
    O604   C344      1.44131      .   S
    B26    O606      1.47616      .   S
    B26    O658      1.47798      .   S
    B26    O602      1.47272  1_554   S
    B26    O662      1.47630  1_554   S
    O606   C346      1.44126      .   S
    B25    O605      1.47614      .   S
    B25    O657      1.47799      .   S
    B25    O601      1.47271  1_554   S
    B25    O661      1.47633  1_554   S
    O605   C345      1.44127      .   S
    B27    O659      1.47417      .   S
    B27    O603      1.47640  1_554   S
    B27    O663      1.47649  1_554   S
    B24    O656      1.47423      .   S
    B24    O600      1.47635  1_554   S
    B24    O660      1.47647  1_554   S
    N529   Cd17      2.40542      .   S
    N529   C337      1.17266  1_554   S
    N528   Cd16      2.40539      .   S
    N528   C336      1.17265  1_554   S
    N530   Cd18      2.40541      .   S
    N530   C338      1.17265  1_554   S
    N531   Cd19      2.40542      .   S
    N531   C339      1.17265  1_554   S
    H60    C344      1.09765      .   S
    H61    C345      1.09768      .   S
    H62    C346      1.09768      .   S
    H63    C347      1.09768      .   S
    C420   C513      1.40254      .   S
    C420   N556      1.17260  1_554   S
    C423   C514      1.40241  1_565   S
    C423   N559      1.17300  1_554   S
    C422   C515      1.40216      .   S
    C422   N558      1.17299  1_554   S
    C421   C512      1.40260  1_565   S
    C421   N557      1.17299  1_554   S
    H224   C424      1.10362      .   S
    H227   C427      1.10280      .   S
    H226   C426      1.10280      .   S
    H225   C425      1.10282      .   S
    C345   H69       1.10075      .   S
    C345   H65       1.10262      .   S
    C347   H71       1.10072      .   S
    C347   H67       1.10265      .   S
    C344   H68       1.10075      .   S
    C344   H64       1.10279      .   S
    C346   H70       1.10072      .   S
    C346   H66       1.10264      .   S
    O659   C427      1.42061      .   S
    O658   C426      1.42061      .   S
    O657   C425      1.42059      .   S
    O656   C424      1.42059      .   S
    H146   C390      1.09794      .   S
    H144   C388      1.09793      .   S
    H145   C389      1.09793      .   S
    H147   C391      1.09795      .   S
    C427   H223      1.10249      .   S
    C427   H219      1.08084      .   S
    C426   H222      1.10248      .   S
    C426   H218      1.08084      .   S
    C425   H221      1.10248      .   S
    C425   H217      1.09799      .   S
    C424   H220      1.10248      .   S
    C424   H216      1.09799      .   S
    H150   C390      1.10249      .   S
    H151   C391      1.10246      .   S
    H149   C389      1.10249      .   S
    H148   C388      1.10247      .   S
    H283   C455      1.10262      .   S
    H282   C454      1.10262      .   S
    H281   C453      1.10262      .   S
    H280   C452      1.10261      .   S
    C515   C519      1.40250      .   S
    C515   C386      1.40259      .   S
    Cd16   N592      2.40647      .   S
    Cd17   N593      2.40649      .   S
    Cd18   N594      2.40647      .   S
    Cd19   N595      2.40647      .   S
    C513   C517      1.40250      .   S
    C513   C384      1.40259      .   S
    C514   C518      1.40248      .   S
    C514   C387      1.40273  1_545   S
    C512   C516      1.40248      .   S
    C512   C385      1.40253  1_545   S
    C518   N594      1.17236      .   S
    C519   N595      1.17234      .   S
    C517   N593      1.17234      .   S
    C516   N592      1.17236      .   S
    C388   O634      1.42022  1_455   S
    C388   H152      1.10284      .   S
    C389   O635      1.42022  1_455   S
    C389   H153      1.10283      .   S
    C390   O632      1.42008      .   S
    C390   H154      1.10283      .   S
    C391   O633      1.42007      .   S
    C391   H155      1.10283      .   S
    H284   C452      1.10073      .   S
    H285   C453      1.10074      .   S
    H286   C454      1.10074      .   S
    H287   C455      1.10073      .   S
    O632   B42       1.47688      .   S
    O633   B43       1.47688      .   S
    O634   B40       1.47708  1_655   S
    O635   B41       1.47709  1_655   S
    C452   H276      1.09778      .   S
    C452   O676      1.42145      .   S
    C455   H279      1.09778      .   S
    C455   O679      1.42145      .   S
    C454   H278      1.09776      .   S
    C454   O678      1.42145      .   S
    C453   H277      1.09776      .   S
    C453   O677      1.42145      .   S
    C386   N546      1.17223      .   S
    C384   N544      1.17224      .   S
    C385   N545      1.17224      .   S
    C387   N547      1.17223      .   S
    N565   C445      1.17223      .   S
    N566   C446      1.17223      .   S
    N564   C444      1.17222      .   S
    N567   C447      1.17222      .   S
    O677   B41       1.47568      .   S
    O676   B40       1.47566      .   S
    O679   B43       1.47566      .   S
    O678   B42       1.47566      .   S
    B43    O637      1.47618      .   S
    B43    O675      1.47718      .   S
    B42    O636      1.47619      .   S
    B42    O674      1.47718      .   S
    B41    O639      1.47640  1_455   S
    B41    O673      1.47718      .   S
    B40    O638      1.47640  1_455   S
    B40    O672      1.47718      .   S
    O639   C395      1.42659      .   S
    O636   C392      1.42659      .   S
    O637   C393      1.42658      .   S
    O638   C394      1.42659      .   S
    N547   Cd11      2.40521      .   S
    N546   Cd10      2.40520      .   S
    N545   Cd9       2.40520      .   S
    N544   Cd8       2.40520      .   S
    H159   C395      1.09776      .   S
    H158   C394      1.09776      .   S
    H157   C393      1.09775      .   S
    H156   C392      1.09775      .   S
    C444   C496      1.40259      .   S
    C445   C497      1.40258      .   S
    C446   C498      1.40259      .   S
    C447   C499      1.40259      .   S
    H272   C448      1.10271      .   S
    H273   C449      1.10271      .   S
    H274   C450      1.10271      .   S
    H275   C451      1.10271      .   S
    C392   H164      1.10073      .   S
    C392   H160      1.10269      .   S
    C393   H165      1.10073      .   S
    C393   H161      1.10269      .   S
    C394   H166      1.10073      .   S
    C394   H162      1.10270      .   S
    C395   H167      1.10073      .   S
    C395   H163      1.10271      .   S
    O675   C449      1.42016      .   S
    O672   C450      1.42063  1_455   S
    O673   C451      1.42065  1_455   S
    O674   C448      1.42018      .   S
    H96    C364      1.09805      .   S
    H99    C367      1.09803      .   S
    H97    C365      1.09805      .   S
    H98    C366      1.09803      .   S
    C448   H268      1.10238      .   S
    C448   H264      1.09791      .   S
    C449   H269      1.10239      .   S
    C449   H265      1.09791      .   S
    C450   H270      1.10238      .   S
    C450   H266      1.09791      .   S
    C451   H271      1.10240      .   S
    C451   H267      1.09790      .   S
    H103   C367      1.10240      .   S
    H100   C364      1.10240      .   S
    H101   C365      1.10240      .   S
    H102   C366      1.10240      .   S
    H259   C443      1.10276      .   S
    H258   C442      1.10276      .   S
    H257   C441      1.10276      .   S
    H256   C440      1.10275      .   S
    N584   C500      1.17234      .   S
    N584   Cd8       2.40419      .   S
    N585   C501      1.17232      .   S
    N585   Cd9       2.40419      .   S
    N586   C502      1.17234      .   S
    N586   Cd10      2.40419      .   S
    N587   C503      1.17232      .   S
    N587   Cd11      2.40419      .   S
    C503   C499      1.40247      .   S
    C500   C496      1.40245      .   S
    C502   C498      1.40245      .   S
    C501   C497      1.40247      .   S
    C496   C360      1.40231      .   S
    C499   C363      1.40231      .   S
    C498   C362      1.40231      .   S
    C497   C361      1.40231      .   S
    C364   O617      1.42052  1_545   S
    C364   H104      1.10265      .   S
    C365   O616      1.42008      .   S
    C365   H105      1.10263      .   S
    C366   O619      1.42054  1_545   S
    C366   H106      1.10263      .   S
    C367   O618      1.42010      .   S
    C367   H107      1.10262      .   S
    H260   C440      1.10112      .   S
    H262   C442      1.10113      .   S
    H263   C443      1.10076      .   S
    H261   C441      1.10075      .   S
    O617   B32       1.47770      .   S
    O618   B35       1.47777      .   S
    O619   B34       1.47771      .   S
    O616   B33       1.47779      .   S
    C443   H255      1.09772      .   S
    C443   O671      1.42154      .   S
    C442   H254      1.09772      .   S
    C442   O670      1.42154      .   S
    C441   H253      1.09772      .   S
    C441   O669      1.42154      .   S
    C440   H252      1.09772      .   S
    C440   O668      1.42152      .   S
    C360   N536      1.17232      .   S
    C361   N537      1.17232      .   S
    C362   N538      1.17233      .   S
    C363   N539      1.17231      .   S
    N563   C435      1.17237      .   S
    N562   C434      1.17239      .   S
    N561   C433      1.17238      .   S
    N560   C432      1.17237      .   S
    O669   B33       1.47607      .   S
    O670   B34       1.47607  1_545   S
    O671   B35       1.47607      .   S
    O668   B32       1.47609  1_545   S
    B35    O622      1.47622      .   S
    B35    O667      1.47668      .   S
    B34    O623      1.47671      .   S
    B34    O666      1.47667  1_565   S
    B33    O620      1.47621      .   S
    B33    O665      1.47669      .   S
    B32    O621      1.47668      .   S
    B32    O664      1.47668  1_565   S
    O620   C368      1.42166      .   S
    O621   C369      1.42166      .   S
    O622   C370      1.42166      .   S
    O623   C371      1.42163      .   S
    N539   Cd15      2.40371      .   S
    N538   Cd14      2.40369      .   S
    N537   Cd13      2.40369      .   S
    N536   Cd12      2.40371      .   S
    H109   C369      1.09776      .   S
    H108   C368      1.09776      .   S
    H110   C370      1.09778      .   S
    H111   C371      1.09779      .   S
    C435   C505      1.40251      .   S
    C434   C504      1.40251      .   S
    C432   C506      1.40267  1_455   S
    C433   C507      1.40266  1_455   S
    H250   C438      1.10272      .   S
    H249   C437      1.10270      .   S
    H248   C436      1.10272      .   S
    H251   C439      1.10272      .   S
    C371   H119      1.10067      .   S
    C371   H115      1.10260      .   S
    C370   H118      1.10067      .   S
    C370   H114      1.10260      .   S
    C369   H117      1.10067      .   S
    C369   H113      1.10260      .   S
    C368   H116      1.10067      .   S
    C368   H112      1.10260      .   S
    O664   C437      1.42014  1_545   S
    O665   C436      1.42003      .   S
    O666   C439      1.42013  1_545   S
    O667   C438      1.42003      .   S
    H120   C376      1.09805      .   S
    H121   C377      1.09805      .   S
    H122   C378      1.09786      .   S
    H123   C379      1.09787      .   S
    C439   H247      1.10247      .   S
    C439   H243      1.09790      .   S
    C438   H246      1.10248      .   S
    C438   H242      1.09790      .   S
    C437   H245      1.10248      .   S
    C437   H241      1.09790      .   S
    C436   H244      1.10248      .   S
    C436   H240      1.09789      .   S
    H126   C378      1.10269      .   S
    H124   C376      1.10253      .   S
    H125   C377      1.10254      .   S
    H127   C379      1.10254      .   S
    H305   C465      1.10335      .   S
    H306   C466      1.08569      .   S
    H304   C464      1.10276      .   S
    H307   C467      1.10260      .   S
    N590   C510      1.17243      .   S
    N591   C511      1.17243      .   S
    N589   C509      1.17241      .   S
    N588   C508      1.17241      .   S
    C510   C506      1.40265      .   S
    C509   C505      1.40265      .   S
    C508   C504      1.40265      .   S
    C511   C507      1.40265      .   S
    C506   C372      1.40271  1_655   S
    C504   C374      1.40245      .   S
    C507   C373      1.40274  1_655   S
    C505   C375      1.40247      .   S
    Cd13   N569      2.40296      .   S
    Cd12   N568      2.40294      .   S
    Cd15   N571      2.40299      .   S
    Cd14   N570      2.40292      .   S
    C378   O626      1.41999      .   S
    C378   H130      1.10156      .   S
    C376   O624      1.41993      .   S
    C376   H128      1.10268      .   S
    C377   O625      1.41994      .   S
    C377   H129      1.10267      .   S
    C379   O627      1.41993      .   S
    C379   H131      1.10267      .   S
    H308   C464      1.10081      .   S
    H309   C465      1.10081      .   S
    H310   C466      1.09649      .   S
    H311   C467      1.10075      .   S
    O624   B36       1.47592      .   S
    O625   B37       1.47591      .   S
    O626   B38       1.47596      .   S
    O627   B39       1.47586      .   S
    C466   H302      1.10424      .   S
    C466   O686      1.43676      .   S
    C464   H300      1.09761      .   S
    C464   O684      1.42165      .   S
    C465   H301      1.09769      .   S
    C465   O685      1.42179      .   S
    C467   H303      1.09769      .   S
    C467   O687      1.42175      .   S
    C373   N541      1.17230      .   S
    C372   N540      1.17230      .   S
    C374   N542      1.17230      .   S
    C375   N543      1.17230      .   S
    N568   C456      1.17252      .   S
    N570   C458      1.17252      .   S
    N571   C459      1.17059      .   S
    N569   C457      1.17252      .   S
    O686   B38       1.47666      .   S
    O684   B36       1.47667      .   S
    O687   B39       1.47667      .   S
    O685   B37       1.47666      .   S
    B38    O630      1.47637      .   S
    B38    O682      1.47469      .   S
    B39    O631      1.47637      .   S
    B39    O683      1.47611      .   S
    B37    O629      1.47635      .   S
    B37    O681      1.47608      .   S
    B36    O628      1.47636      .   S
    B36    O680      1.47472      .   S
    O630   C382      1.42156      .   S
    O628   C380      1.42160      .   S
    O629   C381      1.42162      .   S
    O631   C383      1.42149      .   S
    N540   Cd4       2.40505      .   S
    N541   Cd5       2.40518      .   S
    N542   Cd6       2.40506      .   S
    N543   Cd7       2.40517      .   S
    H134   C382      1.09766      .   S
    H133   C381      1.09771      .   S
    H132   C380      1.09771      .   S
    H135   C383      1.09764      .   S
    C459   C490      1.40413      .   S
    C458   C491      1.40247  1_545   S
    C456   C489      1.40247  1_545   S
    C457   C488      1.40221      .   S
    H296   C460      1.10312      .   S
    H298   C462      1.10279      .   S
    H299   C463      1.10265      .   S
    H297   C461      1.10265      .   S
    C382   H142      1.10081      .   S
    C382   H138      1.10280      .   S
    C380   H140      1.10078      .   S
    C380   H136      1.10257      .   S
    C381   H141      1.10078      .   S
    C381   H137      1.10274      .   S
    C383   H143      1.10080      .   S
    C383   H139      1.10271      .   S
    O680   C460      1.42056      .   S
    O682   C462      1.42057      .   S
    O681   C461      1.41999      .   S
    O683   C463      1.41998      .   S
    H73    C353      1.09786      .   S
    H75    C355      1.09786      .   S
    H74    C354      1.09788      .   S
    H72    C352      1.09785      .   S
    C460   H292      1.10249      .   S
    C460   H288      1.09790      .   S
    C463   H295      1.10247      .   S
    C463   H291      1.09771      .   S
    C462   H294      1.10247      .   S
    C462   H290      1.09790      .   S
    C461   H293      1.10248      .   S
    C461   H289      1.09790      .   S
    H79    C355      1.10249      .   S
    H78    C354      1.10249      .   S
    H77    C353      1.10250      .   S
    H76    C352      1.10250      .   S
    H209   C417      1.10266      .   S
    H210   C418      1.10267      .   S
    H211   C419      1.10267      .   S
    H208   C416      1.10266      .   S
    Cd4    N552      2.40514      .   S
    Cd6    N554      2.40513      .   S
    Cd5    N553      2.40498      .   S
    Cd7    N555      2.40499      .   S
    C491   C495      1.40258      .   S
    C491   C350      1.40276  1_565   S
    C490   C494      1.40256      .   S
    C490   C351      1.40263      .   S
    C488   C492      1.40256      .   S
    C488   C349      1.40264      .   S
    C489   C493      1.40256      .   S
    C489   C348      1.40276  1_565   S
    C493   N581      1.17237      .   S
    C494   N582      1.17237      .   S
    C492   N580      1.17237      .   S
    C495   N583      1.17235      .   S
    C352   O610      1.42002      .   S
    C352   H80       1.10272      .   S
    C353   O611      1.42002      .   S
    C353   H81       1.10272      .   S
    C354   O608      1.42018  1_655   S
    C354   H82       1.10272      .   S
    C355   O609      1.42018  1_655   S
    C355   H83       1.10272      .   S
    H212   C416      1.10066      .   S
    H215   C419      1.10066      .   S
    H214   C418      1.10066      .   S
    H213   C417      1.10067      .   S
    O611   B31       1.47675      .   S
    O610   B30       1.47582      .   S
    O609   B29       1.47675  1_455   S
    O608   B28       1.47674  1_455   S
    C419   H207      1.09785      .   S
    C419   O655      1.42172      .   S
    C418   H206      1.09783      .   S
    C418   O654      1.42172      .   S
    C417   H205      1.09787      .   S
    C417   O653      1.42170      .   S
    C416   H204      1.09783      .   S
    C416   O652      1.42173      .   S
    C349   N533      1.17219      .   S
    C350   N534      1.17219      .   S
    C351   N535      1.17219      .   S
    C348   N532      1.17220      .   S
    N552   C408      1.17233      .   S
    N553   C409      1.17233      .   S
    N554   C410      1.17233      .   S
    N555   C411      1.17232      .   S
    O655   B29       1.47660      .   S
    O654   B28       1.47660      .   S
    O653   B31       1.47609      .   S
    O652   B30       1.47608      .   S
    B30    O614      1.47587      .   S
    B30    O648      1.47812      .   S
    B31    O615      1.47586      .   S
    B31    O649      1.47719      .   S
    B29    O613      1.47587  1_655   S
    B29    O651      1.47713      .   S
    B28    O612      1.47585  1_655   S
    B28    O650      1.47714      .   S
    O613   C357      1.42140      .   S
    O612   C356      1.42140      .   S
    O614   C358      1.42142      .   S
    O615   C359      1.42142      .   S
    H87    C359      1.09772      .   S
    H86    C358      1.09772      .   S
    H85    C357      1.09772      .   S
    H84    C356      1.09772      .   S
    C408   C520      1.40233      .   S
    C409   C521      1.40233      .   S
    C410   C522      1.40233      .   S
    C411   C523      1.40235      .   S
    H203   C415      1.10265      .   S
    H200   C412      1.10265      .   S
    H202   C414      1.10266      .   S
    H201   C413      1.10264      .   S
    C359   H95       1.10075      .   S
    C359   H91       1.10278      .   S
    C356   H92       1.10076      .   S
    C356   H88       1.10278      .   S
    C357   H93       1.10077      .   S
    C357   H89       1.10277      .   S
    C358   H94       1.10077      .   S
    C358   H90       1.10277      .   S
    O649   C415      1.42027      .   S
    O648   C414      1.42027      .   S
    O650   C412      1.42073  1_655   S
    O651   C413      1.42072  1_655   S
    H168   C400      1.09783      .   S
    H169   C401      1.09782      .   S
    H170   C402      1.09782      .   S
    H171   C403      1.09783      .   S
    C413   H197      1.10240      .   S
    C413   H193      1.09795      .   S
    C412   H196      1.10240      .   S
    C412   H192      1.09796      .   S
    C415   H199      1.10241      .   S
    C415   H195      1.09795      .   S
    C414   H198      1.10240      .   S
    C414   H194      1.09795      .   S
    H173   C401      1.10237      .   S
    H174   C402      1.10237      .   S
    H175   C403      1.10237      .   S
    H172   C400      1.10236      .   S
    H331   C479      1.10301      .   S
    H329   C477      1.10264      .   S
    H328   C476      1.10264      .   S
    H330   C478      1.10265      .   S
    N598   C526      1.17230      .   S
    N598   Cd22      2.40322      .   S
    N599   Cd23      2.40324      .   S
    N599   C527      1.17230      .   S
    N597   Cd21      2.40324      .   S
    N597   C525      1.17232      .   S
    N596   Cd20      2.40324      .   S
    N596   C524      1.17230      .   S
    C526   C522      1.40247      .   S
    Cd20   N572      2.40599      .   S
    Cd21   N573      2.40489      .   S
    Cd22   N574      2.40598      .   S
    Cd23   N575      2.40599      .   S
    C524   C520      1.40246      .   S
    C525   C521      1.40244      .   S
    C527   C523      1.40242      .   S
    C523   C399      1.40245      .   S
    C521   C397      1.40245      .   S
    C520   C396      1.40245      .   S
    C522   C398      1.40245      .   S
    C402   O643      1.42023      .   S
    C402   H178      1.10142      .   S
    C401   O640      1.42066  1_565   S
    C401   H177      1.10140      .   S
    C400   O641      1.42021      .   S
    C400   H176      1.10142      .   S
    C403   O642      1.42066  1_565   S
    C403   H179      1.10143      .   S
    H335   C479      1.10078      .   S
    H332   C476      1.10076      .   S
    H333   C477      1.10077      .   S
    H334   C478      1.10076      .   S
    O640   B44       1.47709      .   S
    O643   B47       1.47707      .   S
    O642   B46       1.47707      .   S
    O641   B45       1.47709      .   S
    C477   H325      1.09773      .   S
    C477   O693      1.42151      .   S
    C478   H326      1.09774      .   S
    C478   O694      1.42150      .   S
    C479   H327      1.09773      .   S
    C479   O695      1.42151      .   S
    C476   H324      1.09773      .   S
    C476   O692      1.42151      .   S
    C396   N548      1.17237      .   S
    C397   N549      1.17237      .   S
    C398   N550      1.17237      .   S
    C399   N551      1.17238      .   S
    N573   C469      1.17306      .   S
    N572   C468      1.17172      .   S
    N574   C470      1.17172      .   S
    N575   C471      1.17172      .   S
    O695   B46       1.47624  1_565   S
    O692   B45       1.47607      .   S
    O693   B44       1.47624  1_565   S
    O694   B47       1.47608      .   S
    B47    O647      1.47600      .   S
    B47    O690      1.47684      .   S
    B46    O646      1.47600      .   S
    B46    O691      1.47706  1_545   S
    B45    O645      1.47600      .   S
    B45    O688      1.47685      .   S
    B44    O644      1.47600      .   S
    B44    O689      1.47706  1_545   S
    O644   C404      1.42145      .   S
    O645   C405      1.42146      .   S
    O646   C406      1.42146      .   S
    O647   C407      1.42146      .   S
    N550   Cd2       2.40613      .   S
    N549   Cd1       2.40614      .   S
    N548   Cd0       2.40549      .   S
    N551   Cd3       2.40613      .   S
    H181   C405      1.09779      .   S
    H180   C404      1.09779      .   S
    H182   C406      1.09779      .   S
    H183   C407      1.09781      .   S
    C468   C482      1.40308      .   S
    C469   C483      1.40309      .   S
    C470   C480      1.40325  1_655   S
    C471   C481      1.40323  1_655   S
    H322   C474      1.10276      .   S
    H323   C475      1.10276      .   S
    H321   C473      1.10276      .   S
    H320   C472      1.10277      .   S
    C407   H191      1.10072      .   S
    C407   H187      1.10262      .   S
    C404   H188      1.10072      .   S
    C404   H184      1.10262      .   S
    C405   H189      1.10072      .   S
    C405   H185      1.10262      .   S
    C406   H190      1.10073      .   S
    C406   H186      1.10261      .   S
    O691   C474      1.42002  1_565   S
    O690   C475      1.41993      .   S
    O689   C472      1.42002  1_565   S
    O688   C473      1.41992      .   S
    H49    C341      1.09803      .   S
    H50    C342      1.09802      .   S
    H51    C343      1.09802      .   S
    H48    C340      1.09786      .   S
    C472   H316      1.10249      .   S
    C472   H312      1.09805      .   S
    C475   H319      1.10248      .   S
    C475   H315      1.09805      .   S
    C474   H318      1.10250      .   S
    C474   H314      1.09804      .   S
    C473   H317      1.10251      .   S
    C473   H313      1.09804      .   S
    H52    C340      1.10262      .   S
    H55    C343      1.10256      .   S
    H54    C342      1.10255      .   S
    H53    C341      1.10254      .   S
    H232   C428      1.10266      .   S
    H233   C429      1.10265      .   S
    H234   C430      1.10264      .   S
    H235   C431      1.10264      .   S
    N578   C486      1.17239      .   S
    N577   C485      1.17239      .   S
    N576   C484      1.17239      .   S
    N579   C487      1.17239      .   S
    C484   C480      1.40251      .   S
    C485   C481      1.40253      .   S
    C486   C482      1.40251      .   S
    C487   C483      1.40251      .   S
    C481   C339      1.40284  1_455   S
    C483   C337      1.40257      .   S
    C482   C336      1.40258      .   S
    C480   C338      1.40285  1_455   S
    Cd0    N556      2.40565      .   S
    Cd3    N559      2.40497      .   S
    Cd2    N558      2.40498      .   S
    Cd1    N557      2.40497      .   S
    C340   O600      1.41991      .   S
    C340   H56       1.10276      .   S
    C341   O601      1.41993      .   S
    C341   H57       1.10130      .   S
    C342   O602      1.41993      .   S
    C342   H58       1.10260      .   S
    C343   O603      1.41993      .   S
    C343   H59       1.10260      .   S
    H236   C428      1.10078      .   S
    H237   C429      1.10081      .   S
    H238   C430      1.10081      .   S
    H239   C431      1.10081      .   S
    C431   H231      1.09769      .   S
    C431   O663      1.42189      .   S
    C428   H228      1.09769      .   S
    C428   O660      1.42203      .   S
    C429   H229      1.09769      .   S
    C429   O661      1.42054      .   S
    C430   H230      1.09767      .   S
    C430   O662      1.42189      .   S
    O600   Cd0       2.40153      .   S
    O601   Cd1       2.40129      .   S
    O602   Cd2       2.40126      .   S
    O603   Cd3       2.40128      .   S
    O604   Cd0       2.35028  1_554   S
    O605   Cd1       2.34960  1_554   S
    O606   Cd2       2.34959  1_554   S
    O607   Cd3       2.34962  1_554   S
    O608   Cd4       2.40055      .   S
    O609   Cd5       2.40047      .   S
    O610   Cd6       2.40056      .   S
    O611   Cd7       2.40048      .   S
    O612   Cd4       2.37127      .   S
    O613   Cd5       2.37107      .   S
    O614   Cd6       2.37126      .   S
    O615   Cd7       2.37108      .   S
    O616   Cd8       2.39930      .   S
    O617   Cd9       2.39930      .   S
    O618   Cd10      2.39930      .   S
    O619   Cd11      2.39928      .   S
    O620   Cd8       2.37351      .   S
    O621   Cd9       2.37351      .   S
    O622   Cd10      2.37351      .   S
    O623   Cd11      2.37351      .   S
    O624   Cd12      2.40241      .   S
    O625   Cd13      2.40238      .   S
    O626   Cd14      2.40243      .   S
    O627   Cd15      2.40238      .   S
    O628   Cd12      2.37164      .   S
    O629   Cd13      2.37160      .   S
    O630   Cd14      2.37150      .   S
    O631   Cd15      2.37173      .   S
    O632   Cd16      2.40117      .   S
    O633   Cd17      2.40118      .   S
    O634   Cd18      2.40117      .   S
    O635   Cd19      2.40119      .   S
    O636   Cd16      2.36308      .   S
    O637   Cd17      2.36310      .   S
    O638   Cd18      2.36308      .   S
    O639   Cd19      2.36309      .   S
    O640   Cd20      2.39810      .   S
    O641   Cd21      2.39811      .   S
    O642   Cd22      2.39810      .   S
    O643   Cd23      2.39810      .   S
    O644   Cd20      2.37357      .   S
    O645   Cd21      2.37356      .   S
    O646   Cd22      2.37357      .   S
    O647   Cd23      2.37357      .   S
    O648   Cd20      2.39936      .   S
    O649   Cd21      2.39936      .   S
    O650   Cd22      2.39937      .   S
    O651   Cd23      2.39939      .   S
    O652   Cd20      2.37257      .   S
    O653   Cd21      2.37258      .   S
    O654   Cd22      2.37257      .   S
    O655   Cd23      2.37257      .   S
    O656   Cd16      2.40219      .   S
    O657   Cd17      2.40215      .   S
    O658   Cd18      2.40217      .   S
    O659   Cd19      2.40217      .   S
    O660   Cd16      2.36904  1_556   S
    O661   Cd17      2.37065  1_556   S
    O662   Cd18      2.36917  1_556   S
    O663   Cd19      2.36915  1_556   S
    O664   Cd12      2.40226      .   S
    O665   Cd13      2.40226      .   S
    O666   Cd14      2.40226      .   S
    O667   Cd15      2.40224      .   S
    O668   Cd12      2.37134      .   S
    O669   Cd13      2.37134      .   S
    O670   Cd14      2.37134      .   S
    O671   Cd15      2.37132      .   S
    O672   Cd8       2.39853      .   S
    O673   Cd9       2.39853      .   S
    O674   Cd10      2.39853      .   S
    O675   Cd11      2.39853      .   S
    O676   Cd8       2.37428      .   S
    O677   Cd9       2.37427      .   S
    O678   Cd10      2.37428      .   S
    O679   Cd11      2.37427      .   S
    O680   Cd4       2.40279      .   S
    O681   Cd5       2.40237      .   S
    O682   Cd6       2.40277      .   S
    O683   Cd7       2.40239      .   S
    O684   Cd4       2.37047      .   S
    O685   Cd5       2.37049      .   S
    O686   Cd6       2.37043      .   S
    O687   Cd7       2.37054      .   S
    O688   Cd0       2.40161      .   S
    O689   Cd1       2.40186      .   S
    O690   Cd2       2.40185      .   S
    O691   Cd3       2.40186      .   S
    O692   Cd0       2.36946      .   S
    O693   Cd1       2.37020      .   S
    O694   Cd2       2.37021      .   S
    O695   Cd3       2.37020      .   S
