# CIF file generated by openbabel 2.4.90, see http://openbabel.sf.net
data_I
_chemical_name_common 'CuH(C2N3)3'
_cell_length_a 7.525
_cell_length_b 12.561
_cell_length_c 12.567
_cell_angle_alpha 85.092
_cell_angle_beta 82.732
_cell_angle_gamma 82.585
_space_group_name_H-M_alt 'P 1'
_space_group_name_Hall 'P 1'
loop_
    _symmetry_equiv_pos_as_xyz
    x,y,z
loop_
    _atom_site_label
    _atom_site_type_symbol
    _atom_site_fract_x
    _atom_site_fract_y
    _atom_site_fract_z
    _atom_site_occupancy
    Cu0     Cu   0.90615   0.35621   0.94057   1.000
    Cu1     Cu   0.40658   0.94054   0.35622   1.000
    Cu2     Cu   0.59335   0.05949   0.64377   1.000
    Cu3     Cu   0.09416   0.64378   0.05938   1.000
    H4      H    0.44767   0.41686   0.46800   1.000
    H5      H    0.94737   0.46787   0.41687   1.000
    H6      H    0.05267   0.53211   0.58311   1.000
    H7      H    0.55243   0.58317   0.53204   1.000
    C8      C    0.43605   0.52925   0.33404   1.000
    C9      C    0.36195   0.35035   0.33774   1.000
    C10     C    0.32454   0.46977   0.19289   1.000
    C11     C    0.49412   0.70143   0.35038   1.000
    C12     C    0.31724   0.17061   0.36251   1.000
    C13     C    0.20290   0.42413   0.04402   1.000
    C14     C    0.93535   0.33413   0.52949   1.000
    C15     C    0.86165   0.33756   0.35049   1.000
    C16     C    0.82384   0.19296   0.47011   1.000
    C17     C    0.99352   0.35058   0.70166   1.000
    C18     C    0.81757   0.36214   0.17059   1.000
    C19     C    0.70261   0.04403   0.42444   1.000
    C20     C    0.06468   0.66584   0.47047   1.000
    C21     C    0.13843   0.66242   0.64946   1.000
    C22     C    0.17615   0.80703   0.52985   1.000
    C23     C    0.00648   0.64946   0.29842   1.000
    C24     C    0.18264   0.63780   0.82934   1.000
    C25     C    0.29734   0.95598   0.57551   1.000
    C26     C    0.56405   0.47075   0.66597   1.000
    C27     C    0.63813   0.64966   0.66231   1.000
    C28     C    0.67560   0.53020   0.80713   1.000
    C29     C    0.50588   0.29860   0.64961   1.000
    C30     C    0.68278   0.82942   0.63755   1.000
    C31     C    0.79714   0.57581   0.95605   1.000
    N32     N    0.42006   0.43055   0.38814   1.000
    N33     N    0.31596   0.36839   0.23823   1.000
    N34     N    0.38817   0.55061   0.23542   1.000
    N35     N    0.50015   0.60178   0.38867   1.000
    N36     N    0.49287   0.79407   0.32546   1.000
    N37     N    0.34618   0.25806   0.39908   1.000
    N38     N    0.28874   0.08471   0.34026   1.000
    N39     N    0.25894   0.49659   0.09595   1.000
    N40     N    0.14852   0.37008   0.98577   1.000
    N41     N    0.91948   0.38810   0.43071   1.000
    N42     N    0.81557   0.23810   0.36864   1.000
    N43     N    0.88739   0.23558   0.55094   1.000
    N44     N    0.99955   0.38880   0.60205   1.000
    N45     N    0.99213   0.32563   0.79426   1.000
    N46     N    0.84629   0.39872   0.25807   1.000
    N47     N    0.78922   0.33996   0.08464   1.000
    N48     N    0.75825   0.09609   0.49694   1.000
    N49     N    0.64866   0.98567   0.37035   1.000
    N50     N    0.08053   0.61189   0.56925   1.000
    N51     N    0.18447   0.76188   0.63131   1.000
    N52     N    0.11256   0.76441   0.44903   1.000
    N53     N    0.00051   0.61121   0.39802   1.000
    N54     N    0.00782   0.67442   0.20582   1.000
    N55     N    0.15380   0.60125   0.74187   1.000
    N56     N    0.21107   0.65994   0.91529   1.000
    N57     N    0.24168   0.90392   0.50301   1.000
    N58     N    0.35131   0.01434   0.62959   1.000
    N59     N    0.58006   0.56946   0.61189   1.000
    N60     N    0.68415   0.63160   0.76182   1.000
    N61     N    0.61198   0.44937   0.76458   1.000
    N62     N    0.49992   0.39824   0.61134   1.000
    N63     N    0.50707   0.20596   0.67452   1.000
    N64     N    0.65391   0.74195   0.60098   1.000
    N65     N    0.71123   0.91534   0.65979   1.000
    N66     N    0.74119   0.50336   0.90408   1.000
    N67     N    0.85140   0.62987   0.01435   1.000
loop_
    _geom_bond_atom_site_label_1
    _geom_bond_atom_site_label_2
    _geom_bond_distance
    _geom_bond_site_symmetry_2
    _ccdc_geom_bond_type
    N67    Cu3       2.01217  1_655   S
    N67    C31       1.18191  1_554   S
    C13    N39       1.30471      .   S
    C13    N40       1.18191  1_554   S
    Cu3    N39       2.13871      .   S
    Cu3    N54       1.92641      .   S
    Cu3    N56       1.91680  1_554   S
    N47    C18       1.18956      .   S
    N47    Cu0       1.91675  1_554   S
    N39    C10       1.37129      .   S
    C18    N46       1.28007      .   S
    C10    N34       1.35242      .   S
    C10    N33       1.35588      .   S
    N54    C23       1.17811      .   S
    N34    C8        1.32999      .   S
    N33    C9        1.33263      .   S
    N46    C15       1.34575      .   S
    C23    N53       1.29920      .   S
    N36    C11       1.17811      .   S
    N36    Cu1       1.92497      .   S
    C8     N32       1.37383      .   S
    C8     N35       1.35579      .   S
    C9     N32       1.37843      .   S
    C9     N37       1.34592      .   S
    N38    Cu1       1.91687  1_545   S
    N38    C12       1.18959      .   S
    C11    N35       1.29919      .   S
    C15    N42       1.33267      .   S
    C15    N41       1.37856      .   S
    Cu1    N49       2.00920      .   S
    Cu1    N57       2.13955      .   S
    C12    N37       1.28014      .   S
    N42    C16       1.35595      .   S
    N49    C19       1.18160  1_565   S
    N32    H4        1.04590      .   S
    N53    C20       1.35527      .   S
    H5     N41       1.04578      .   S
    C19    N48       1.30468      .   S
    N41    C14       1.37384      .   S
    N52    C20       1.33004      .   S
    N52    C22       1.35241      .   S
    C16    N48       1.37132      .   S
    C16    N43       1.35244      .   S
    C20    N50       1.37383      .   S
    N48    Cu2       2.13970      .   S
    N57    C22       1.37135      .   S
    N57    C25       1.30467      .   S
    C14    N43       1.33005      .   S
    C14    N44       1.35666      .   S
    C22    N51       1.35594      .   S
    H7     N59       1.04588      .   S
    N50    H6        1.04580      .   S
    N50    C21       1.37857      .   S
    C25    N58       1.18160  1_565   S
    N64    C30       1.28011      .   S
    N64    C27       1.34592      .   S
    N44    C17       1.29922      .   S
    N62    C29       1.29919      .   S
    N62    C26       1.35579      .   S
    N59    C27       1.37844      .   S
    N59    C26       1.37384      .   S
    N58    Cu2       2.00919      .   S
    N51    C21       1.33268      .   S
    C30    N65       1.18961      .   S
    Cu2    N65       1.91679  1_545   S
    Cu2    N63       1.92499      .   S
    C21    N55       1.34573      .   S
    C29    N63       1.17810      .   S
    C27    N60       1.33263      .   S
    C26    N61       1.32999      .   S
    C17    N45       1.17811      .   S
    N55    C24       1.28007      .   S
    N60    C28       1.35591      .   S
    N61    C28       1.35243      .   S
    N45    Cu0       1.92418      .   S
    C28    N66       1.37129      .   S
    C24    N56       1.18955      .   S
    N66    Cu0       2.13885      .   S
    N66    C31       1.30471      .   S
    Cu0    N40       2.01008  1_655   S
