# CIF file generated by openbabel 2.4.90, see http://openbabel.sf.net
data_I
_chemical_name_common ''
_cell_length_a 10.9375
_cell_length_b 13.463
_cell_length_c 15.13
_cell_angle_alpha 90.056
_cell_angle_beta 105.416
_cell_angle_gamma 90.013
_space_group_name_H-M_alt 'P 1'
_space_group_name_Hall 'P 1'
loop_
    _symmetry_equiv_pos_as_xyz
    x,y,z
loop_
    _atom_site_label
    _atom_site_type_symbol
    _atom_site_fract_x
    _atom_site_fract_y
    _atom_site_fract_z
    _atom_site_occupancy
    C0      C    0.75175   0.17410   0.49994   1.000
    C1      C    0.25058   0.82537   0.50002   1.000
    C2      C    0.47881   0.16092   0.34735   1.000
    C3      C    0.76232   0.94173   0.42257   1.000
    C4      C    0.56598   0.86657   0.28243   1.000
    C5      C    0.36607   0.15515   0.18159   1.000
    C6      C    0.15947   0.13703   0.06273   1.000
    C7      C    0.14337   0.82927   0.13524   1.000
    C8      C    0.34518   0.84810   0.25744   1.000
    C9      C    0.02186   0.29852   0.35500   1.000
    C10     C    0.10014   0.37528   0.22957   1.000
    C11     C    0.72071   0.47223   0.09832   1.000
    C12     C    0.64605   0.39608   0.22467   1.000
    C13     C    0.92802   0.63538   0.17687   1.000
    C14     C    0.91483   0.72019   0.08428   1.000
    C15     C    0.78687   0.63991   0.08705   1.000
    C16     C    0.02017   0.32372   0.04532   1.000
    C17     C    0.02208   0.16105   0.65209   1.000
    C18     C    0.73877   0.94235   0.57734   1.000
    C19     C    0.93403   0.86718   0.71807   1.000
    C20     C    0.13475   0.15587   0.81767   1.000
    C21     C    0.34143   0.13765   0.93642   1.000
    C22     C    0.35593   0.82950   0.86417   1.000
    C23     C    0.15401   0.84840   0.74209   1.000
    C24     C    0.47886   0.29814   0.64435   1.000
    C25     C    0.40016   0.37491   0.76974   1.000
    C26     C    0.77988   0.47252   0.90176   1.000
    C27     C    0.85555   0.39659   0.77569   1.000
    C28     C    0.57155   0.63491   0.82291   1.000
    C29     C    0.58473   0.71975   0.91563   1.000
    C30     C    0.71284   0.63979   0.91259   1.000
    C31     C    0.47944   0.32327   0.95377   1.000
    C32     C    0.52289   0.83904   0.65241   1.000
    C33     C    0.23815   0.05728   0.57722   1.000
    C34     C    0.43376   0.13270   0.71783   1.000
    C35     C    0.63478   0.84451   0.81814   1.000
    C36     C    0.84136   0.86283   0.93709   1.000
    C37     C    0.85647   0.17085   0.86510   1.000
    C38     C    0.65470   0.15185   0.74281   1.000
    C39     C    0.97639   0.70103   0.64477   1.000
    C40     C    0.89875   0.62407   0.77047   1.000
    C41     C    0.27967   0.52711   0.90181   1.000
    C42     C    0.35495   0.60305   0.77574   1.000
    C43     C    0.07054   0.36453   0.82289   1.000
    C44     C    0.08409   0.27979   0.91556   1.000
    C45     C    0.21209   0.35983   0.91234   1.000
    C46     C    0.97865   0.67629   0.95431   1.000
    C47     C    0.97608   0.83976   0.34747   1.000
    C48     C    0.26319   0.05709   0.42250   1.000
    C49     C    0.06714   0.13239   0.28236   1.000
    C50     C    0.86430   0.84478   0.18177   1.000
    C51     C    0.65798   0.86295   0.06263   1.000
    C52     C    0.64367   0.17133   0.13416   1.000
    C53     C    0.84525   0.15253   0.25656   1.000
    C54     C    0.52271   0.70104   0.35493   1.000
    C55     C    0.60081   0.62411   0.22937   1.000
    C56     C    0.22085   0.52640   0.09817   1.000
    C57     C    0.14575   0.60258   0.22434   1.000
    C58     C    0.42866   0.36399   0.17628   1.000
    C59     C    0.41562   0.27920   0.08352   1.000
    C60     C    0.28747   0.35915   0.08649   1.000
    C61     C    0.52104   0.67568   0.04552   1.000
    C62     C    0.52895   0.09114   0.35024   1.000
    C63     C    0.67284   0.97542   0.38703   1.000
    C64     C    0.57719   0.93709   0.31798   1.000
    C65     C    0.36782   0.00246   0.22642   1.000
    C66     C    0.31555   0.08456   0.17238   1.000
    C67     C    0.20121   0.07451   0.10579   1.000
    C68     C    0.13859   0.98198   0.09158   1.000
    C69     C    0.19225   0.90058   0.14618   1.000
    C70     C    0.30583   0.91067   0.21373   1.000
    C71     C    0.77806   0.28832   0.36618   1.000
    C72     C    0.82938   0.34096   0.29621   1.000
    C73     C    0.95812   0.33652   0.29793   1.000
    C74     C    0.99973   0.37873   0.22756   1.000
    C75     C    0.91597   0.42821   0.15449   1.000
    C76     C    0.78794   0.43524   0.15478   1.000
    C77     C    0.74541   0.39207   0.22462   1.000
    C78     C    0.95907   0.46792   0.07641   1.000
    C79     C    0.94451   0.56875   0.05000   1.000
    C80     C    0.89080   0.64501   0.10241   1.000
    C81     C    0.01351   0.40205   0.02585   1.000
    C82     C    0.97328   0.09095   0.64970   1.000
    C83     C    0.82847   0.97578   0.61295   1.000
    C84     C    0.92355   0.93747   0.68230   1.000
    C85     C    0.13219   0.00292   0.77309   1.000
    C86     C    0.18491   0.08516   0.82696   1.000
    C87     C    0.29927   0.07506   0.89346   1.000
    C88     C    0.36139   0.98238   0.90773   1.000
    C89     C    0.30736   0.90090   0.85322   1.000
    C90     C    0.19374   0.91102   0.78576   1.000
    C91     C    0.72468   0.28824   0.63393   1.000
    C92     C    0.67272   0.34068   0.70378   1.000
    C93     C    0.54390   0.33575   0.70178   1.000
    C94     C    0.50063   0.37835   0.77191   1.000
    C95     C    0.58494   0.42771   0.84524   1.000
    C96     C    0.71303   0.43521   0.84521   1.000
    C97     C    0.75614   0.39217   0.77552   1.000
    C98     C    0.54134   0.46735   0.92322   1.000
    C99     C    0.55555   0.56822   0.94977   1.000
    C100    C    0.60891   0.64463   0.89738   1.000
    C101    C    0.48637   0.40156   0.97354   1.000
    C102    C    0.47232   0.90861   0.64958   1.000
    C103    C    0.32778   0.02386   0.61283   1.000
    C104    C    0.42304   0.06231   0.68208   1.000
    C105    C    0.63265   0.99736   0.77363   1.000
    C106    C    0.68509   0.91520   0.82751   1.000
    C107    C    0.79937   0.92535   0.89412   1.000
    C108    C    0.86161   0.01802   0.90845   1.000
    C109    C    0.80779   0.09946   0.85401   1.000
    C110    C    0.69426   0.08927   0.78645   1.000
    C111    C    0.22382   0.71142   0.63419   1.000
    C112    C    0.17208   0.65900   0.70414   1.000
    C113    C    0.04335   0.66388   0.70241   1.000
    C114    C    0.99914   0.62102   0.77238   1.000
    C115    C    0.08469   0.57191   0.84574   1.000
    C116    C    0.21269   0.56443   0.84544   1.000
    C117    C    0.25560   0.60750   0.77571   1.000
    C118    C    0.04120   0.53224   0.92373   1.000
    C119    C    0.05503   0.43132   0.94994   1.000
    C120    C    0.10817   0.35491   0.89733   1.000
    C121    C    0.98580   0.59803   0.97402   1.000
    C122    C    0.02854   0.90850   0.35072   1.000
    C123    C    0.17336   0.02369   0.38713   1.000
    C124    C    0.07789   0.06207   0.31810   1.000
    C125    C    0.86690   0.99783   0.22606   1.000
    C126    C    0.81425   0.91554   0.17224   1.000
    C127    C    0.70009   0.92561   0.10551   1.000
    C128    C    0.63810   0.01833   0.09097   1.000
    C129    C    0.69212   0.09989   0.14536   1.000
    C130    C    0.80555   0.08981   0.21302   1.000
    C131    C    0.27714   0.71123   0.36586   1.000
    C132    C    0.32872   0.65861   0.29589   1.000
    C133    C    0.45746   0.66343   0.29761   1.000
    C134    C    0.50041   0.62071   0.22738   1.000
    C135    C    0.41588   0.57127   0.15422   1.000
    C136    C    0.28790   0.56379   0.15457   1.000
    C137    C    0.24509   0.60699   0.22434   1.000
    C138    C    0.45921   0.53160   0.07612   1.000
    C139    C    0.44492   0.43074   0.04952   1.000
    C140    C    0.39142   0.35431   0.10180   1.000
    C141    C    0.51412   0.59739   0.02576   1.000
    C142    C    0.64132   0.07096   0.40727   1.000
    C143    C    0.48566   0.01120   0.29449   1.000
    C144    C    0.02343   0.96251   0.02488   1.000
    C145    C    0.86093   0.07095   0.59250   1.000
    C146    C    0.01429   0.01169   0.70518   1.000
    C147    C    0.47640   0.96290   0.97446   1.000
    C148    C    0.35997   0.92857   0.59246   1.000
    C149    C    0.51496   0.98849   0.70551   1.000
    C150    C    0.97666   0.03751   0.97518   1.000
    C151    C    0.14112   0.92847   0.40759   1.000
    C152    C    0.98447   0.98902   0.29433   1.000
    C153    C    0.52316   0.03779   0.02416   1.000
    C154    C    0.66281   0.29502   0.36325   1.000
    C155    C    0.85826   0.23366   0.42547   1.000
    C156    C    0.84000   0.29528   0.63715   1.000
    C157    C    0.64492   0.23345   0.57437   1.000
    C158    C    0.33912   0.70450   0.63729   1.000
    C159    C    0.14395   0.76607   0.57468   1.000
    C160    C    0.16183   0.70444   0.36280   1.000
    C161    C    0.35718   0.76594   0.42536   1.000
    O162    O    0.58063   0.02806   0.05757   1.000
    O163    O    0.49978   0.00034   0.99931   1.000
    O164    O    0.08101   0.97224   0.05823   1.000
    O165    O    0.00004   0.00001   0.00003   1.000
    O166    O    0.51758   0.63654   0.03564   1.000
    O167    O    0.48667   0.56449   0.05094   1.000
    O168    O    0.53483   0.58280   0.98776   1.000
    O169    O    0.01684   0.36289   0.03558   1.000
    O170    O    0.98629   0.43499   0.05113   1.000
    O171    O    0.03427   0.41668   0.98789   1.000
    O172    O    0.45206   0.48117   0.06282   1.000
    O173    O    0.41817   0.39253   0.07566   1.000
    O174    O    0.46564   0.41615   0.01153   1.000
    O175    O    0.95179   0.51834   0.06320   1.000
    O176    O    0.91765   0.60688   0.07620   1.000
    O177    O    0.96515   0.58339   0.01201   1.000
    O178    O    0.67904   0.89428   0.08407   1.000
    O179    O    0.18034   0.10577   0.08426   1.000
    O180    O    0.43755   0.55143   0.11517   1.000
    O181    O    0.93752   0.44807   0.11545   1.000
    O182    O    0.40352   0.31676   0.09266   1.000
    O183    O    0.90282   0.68260   0.09334   1.000
    O184    O    0.33945   0.35673   0.09414   1.000
    O185    O    0.83884   0.64246   0.09473   1.000
    O186    O    0.66910   0.97197   0.09824   1.000
    O187    O    0.66511   0.05911   0.11817   1.000
    O188    O    0.16990   0.02824   0.09868   1.000
    O189    O    0.16542   0.94128   0.11888   1.000
    O190    O    0.25437   0.54510   0.12637   1.000
    O191    O    0.75433   0.45373   0.12655   1.000
    O192    O    0.41004   0.35915   0.13904   1.000
    O193    O    0.90941   0.64020   0.13964   1.000
    O194    O    0.75717   0.92057   0.13888   1.000
    O195    O    0.25838   0.07953   0.13908   1.000
    O196    O    0.66790   0.13561   0.13976   1.000
    O197    O    0.16781   0.86493   0.14071   1.000
    O198    O    0.74884   0.09485   0.17919   1.000
    O199    O    0.24904   0.90563   0.17995   1.000
    O200    O    0.35189   0.56753   0.15439   1.000
    O201    O    0.45815   0.59599   0.19080   1.000
    O202    O    0.85196   0.43173   0.15464   1.000
    O203    O    0.95785   0.40347   0.19102   1.000
    O204    O    0.26650   0.58539   0.18945   1.000
    O205    O    0.76667   0.41365   0.18970   1.000
    O206    O    0.83928   0.88016   0.17701   1.000
    O207    O    0.84058   0.95668   0.19915   1.000
    O208    O    0.34081   0.11986   0.17698   1.000
    O209    O    0.34169   0.04351   0.19940   1.000
    O210    O    0.83623   0.04382   0.21954   1.000
    O211    O    0.82540   0.12117   0.23479   1.000
    O212    O    0.33683   0.95656   0.22008   1.000
    O213    O    0.32551   0.87938   0.23559   1.000
    O214    O    0.19542   0.60479   0.22434   1.000
    O215    O    0.28691   0.63280   0.26012   1.000
    O216    O    0.69573   0.39407   0.22464   1.000
    O217    O    0.78739   0.36651   0.26041   1.000
    O218    O    0.92569   0.99343   0.26020   1.000
    O219    O    0.42674   0.00683   0.26046   1.000
    O220    O    0.55061   0.62241   0.22838   1.000
    O221    O    0.47893   0.64207   0.26250   1.000
    O222    O    0.04994   0.37701   0.22856   1.000
    O223    O    0.97893   0.35763   0.26274   1.000
    O224    O    0.07251   0.09723   0.30023   1.000
    O225    O    0.57158   0.90183   0.30020   1.000
    O226    O    0.03118   0.02555   0.30622   1.000
    O227    O    0.00650   0.94876   0.32252   1.000
    O228    O    0.53142   0.97414   0.30624   1.000
    O229    O    0.50730   0.05117   0.32236   1.000
    O230    O    0.39309   0.66102   0.29675   1.000
    O231    O    0.30293   0.68492   0.33088   1.000
    O232    O    0.89375   0.33874   0.29707   1.000
    O233    O    0.80372   0.31464   0.33119   1.000
    O234    O    0.49008   0.68224   0.32627   1.000
    O235    O    0.98999   0.31752   0.32646   1.000
    O236    O    0.62501   0.95626   0.35250   1.000
    O237    O    0.12562   0.04288   0.35262   1.000
    O238    O    0.50388   0.12603   0.34879   1.000
    O239    O    0.00231   0.87413   0.34909   1.000
    O240    O    0.58514   0.08105   0.37875   1.000
    O241    O    0.08483   0.91848   0.37915   1.000
    O242    O    0.21948   0.70784   0.36433   1.000
    O243    O    0.72043   0.29167   0.36471   1.000
    O244    O    0.31716   0.73859   0.39561   1.000
    O245    O    0.81816   0.26099   0.39583   1.000
    O246    O    0.65708   0.02319   0.39715   1.000
    O247    O    0.71758   0.95857   0.40480   1.000
    O248    O    0.15724   0.97608   0.39736   1.000
    O249    O    0.21827   0.04039   0.40481   1.000
    O250    O    0.69653   0.12253   0.45361   1.000
    O251    O    0.19585   0.87692   0.45381   1.000
    O252    O    0.30388   0.79566   0.46269   1.000
    O253    O    0.80500   0.20388   0.46271   1.000
    O254    O    0.69833   0.20378   0.53716   1.000
    O255    O    0.80634   0.12253   0.54622   1.000
    O256    O    0.19726   0.79572   0.53735   1.000
    O257    O    0.30528   0.87697   0.54624   1.000
    O258    O    0.68480   0.26084   0.60415   1.000
    O259    O    0.18388   0.73874   0.60444   1.000
    O260    O    0.28296   0.04057   0.59503   1.000
    O261    O    0.78362   0.95907   0.59514   1.000
    O262    O    0.34388   0.97621   0.60264   1.000
    O263    O    0.41615   0.91859   0.62102   1.000
    O264    O    0.84470   0.02337   0.60273   1.000
    O265    O    0.91711   0.08095   0.62110   1.000
    O266    O    0.37541   0.04309   0.64745   1.000
    O267    O    0.87601   0.95663   0.64763   1.000
    O268    O    0.78234   0.29176   0.63554   1.000
    O269    O    0.69870   0.31446   0.66885   1.000
    O270    O    0.28147   0.70796   0.63574   1.000
    O271    O    0.19795   0.68521   0.66917   1.000
    O272    O    0.51138   0.31695   0.67307   1.000
    O273    O    0.00987   0.68246   0.67359   1.000
    O274    O    0.49760   0.87383   0.65100   1.000
    O275    O    0.49364   0.94855   0.67755   1.000
    O276    O    0.99768   0.12600   0.65090   1.000
    O277    O    0.99379   0.05132   0.67744   1.000
    O278    O    0.46900   0.02540   0.69379   1.000
    O279    O    0.42840   0.09750   0.69995   1.000
    O280    O    0.96892   0.97458   0.69374   1.000
    O281    O    0.92879   0.90232   0.70019   1.000
    O282    O    0.60831   0.33822   0.70278   1.000
    O283    O    0.52227   0.35705   0.73685   1.000
    O284    O    0.10772   0.66144   0.70328   1.000
    O285    O    0.02125   0.64245   0.73740   1.000
    O286    O    0.71443   0.36643   0.73965   1.000
    O287    O    0.21384   0.63325   0.73993   1.000
    O288    O    0.07324   0.00731   0.73914   1.000
    O289    O    0.57380   0.99292   0.73957   1.000
    O290    O    0.17387   0.87971   0.76392   1.000
    O291    O    0.67448   0.12056   0.76463   1.000
    O292    O    0.45039   0.37663   0.77083   1.000
    O293    O    0.94894   0.62255   0.77142   1.000
    O294    O    0.54278   0.40303   0.80858   1.000
    O295    O    0.04192   0.59647   0.80906   1.000
    O296    O    0.16296   0.95697   0.77943   1.000
    O297    O    0.15855   0.04404   0.80003   1.000
    O298    O    0.66345   0.04331   0.78004   1.000
    O299    O    0.65887   0.95628   0.80057   1.000
    O300    O    0.80584   0.39438   0.77560   1.000
    O301    O    0.73458   0.41369   0.81036   1.000
    O302    O    0.30528   0.60528   0.77573   1.000
    O303    O    0.23415   0.58596   0.81057   1.000
    O304    O    0.25055   0.90596   0.81949   1.000
    O305    O    0.75103   0.09436   0.82023   1.000
    O306    O    0.15983   0.12051   0.82231   1.000
    O307    O    0.65994   0.87985   0.82282   1.000
    O308    O    0.08935   0.35972   0.86011   1.000
    O309    O    0.59023   0.63977   0.86015   1.000
    O310    O    0.24209   0.08011   0.86021   1.000
    O311    O    0.74223   0.92027   0.86081   1.000
    O312    O    0.64898   0.43146   0.84523   1.000
    O313    O    0.74646   0.45387   0.87349   1.000
    O314    O    0.56314   0.44753   0.88423   1.000
    O315    O    0.14869   0.56817   0.84559   1.000
    O316    O    0.24618   0.54577   0.87363   1.000
    O317    O    0.06295   0.55208   0.88474   1.000
    O318    O    0.33165   0.86520   0.85870   1.000
    O319    O    0.33437   0.94164   0.88047   1.000
    O320    O    0.83213   0.13515   0.85956   1.000
    O321    O    0.83470   0.05874   0.88123   1.000
    O322    O    0.33033   0.02872   0.90059   1.000
    O323    O    0.32035   0.10636   0.91494   1.000
    O324    O    0.83049   0.97168   0.90128   1.000
    O325    O    0.82036   0.89409   0.91560   1.000
    O326    O    0.16013   0.35737   0.90484   1.000
    O327    O    0.09613   0.31735   0.90645   1.000
    O328    O    0.08160   0.39311   0.92364   1.000
    O329    O    0.66088   0.64221   0.90499   1.000
    O330    O    0.59682   0.68219   0.90651   1.000
    O331    O    0.58223   0.60642   0.92357   1.000
    O332    O    0.41889   0.97264   0.94109   1.000
    O333    O    0.91914   0.02777   0.94182   1.000
    O334    O    0.54844   0.51778   0.93649   1.000
    O335    O    0.51385   0.43445   0.94838   1.000
    O336    O    0.04812   0.48178   0.93684   1.000
    O337    O    0.01350   0.56513   0.94888   1.000
    O338    O    0.48291   0.36241   0.96365   1.000
    O339    O    0.98222   0.63716   0.96417   1.000
loop_
    _geom_bond_atom_site_label_1
    _geom_bond_atom_site_label_2
    _geom_bond_distance
    _geom_bond_site_symmetry_2
    _ccdc_geom_bond_type
    C153   O162      0.70639      .   S
    C128   O162      0.70639      .   S
    C153   O163      0.63979  1_554   S
    C147   O163      0.63979  1_565   S
    C144   O164      0.70660      .   S
    C68    O164      0.70660      .   S
    C144   O165      0.64111  1_565   S
    C150   O165      0.64111  1_656   S
    C141   O166      0.54620      .   S
    C61    O166      0.54620      .   S
    C141   O167      0.70183      .   S
    C138   O167      0.70183      .   S
    C141   O168      0.69963  1_554   S
    C99    O168      0.69963      .   S
    C81    O169      0.54621      .   S
    C16    O169      0.54621      .   S
    C81    O170      0.70133  1_455   S
    C78    O170      0.70133      .   S
    C81    O171      0.69973  1_554   S
    C119   O171      0.69973      .   S
    C139   O172      0.70628      .   S
    C138   O172      0.70628      .   S
    C139   O173      0.75402      .   S
    C140   O173      0.75402      .   S
    C139   O174      0.69964      .   S
    C101   O174      0.69964  1_556   S
    C79    O175      0.70621      .   S
    C78    O175      0.70621      .   S
    C79    O176      0.75402      .   S
    C80    O176      0.75402      .   S
    C79    O177      0.69958      .   S
    C121   O177      0.69958  1_556   S
    C51    O178      0.54419      .   S
    C127   O178      0.54419      .   S
    C6     O179      0.54419      .   S
    C67    O179      0.54419      .   S
    C138   O180      0.74208      .   S
    C135   O180      0.74208      .   S
    C78    O181      0.74177      .   S
    C75    O181      0.74177      .   S
    C59    O182      0.54942      .   S
    C140   O182      0.54942      .   S
    C14    O183      0.54941      .   S
    C80    O183      0.54941      .   S
    C60    O184      0.55012      .   S
    C140   O184      0.55012      .   S
    C15    O185      0.55012      .   S
    C80    O185      0.55012      .   S
    C128   O186      0.70497  1_545   S
    C127   O186      0.70497      .   S
    C128   O187      0.70207      .   S
    C129   O187      0.70207      .   S
    C68    O188      0.70497  1_565   S
    C67    O188      0.70497      .   S
    C68    O189      0.70213      .   S
    C69    O189      0.70213      .   S
    C56    O190      0.54440      .   S
    C136   O190      0.54440      .   S
    C11    O191      0.54442      .   S
    C76    O191      0.54442      .   S
    C140   O192      0.54964      .   S
    C58    O192      0.54964      .   S
    C80    O193      0.54965      .   S
    C13    O193      0.54965      .   S
    C127   O194      0.69406      .   S
    C126   O194      0.69406      .   S
    C67    O195      0.69414      .   S
    C66    O195      0.69414      .   S
    C52    O196      0.54484      .   S
    C129   O196      0.54484      .   S
    C7     O197      0.54485      .   S
    C69    O197      0.54485      .   S
    C129   O198      0.69473      .   S
    C130   O198      0.69473      .   S
    C69    O199      0.69480      .   S
    C70    O199      0.69480      .   S
    C135   O200      0.70239      .   S
    C136   O200      0.70239      .   S
    C135   O201      0.70310      .   S
    C134   O201      0.70310      .   S
    C75    O202      0.70233      .   S
    C76    O202      0.70233      .   S
    C75    O203      0.70152      .   S
    C74    O203      0.70152      .   S
    C136   O204      0.69529      .   S
    C137   O204      0.69529      .   S
    C76    O205      0.69518      .   S
    C77    O205      0.69518      .   S
    C126   O206      0.54465      .   S
    C50    O206      0.54465      .   S
    C126   O207      0.70191      .   S
    C125   O207      0.70191      .   S
    C66    O208      0.54465      .   S
    C5     O208      0.54465      .   S
    C66    O209      0.70192      .   S
    C65    O209      0.70192      .   S
    C130   O210      0.69878      .   S
    C125   O210      0.69878  1_565   S
    C130   O211      0.54362      .   S
    C53    O211      0.54362      .   S
    C70    O212      0.69884      .   S
    C65    O212      0.69884  1_545   S
    C70    O213      0.54365      .   S
    C8     O213      0.54365      .   S
    C57    O214      0.54409      .   S
    C137   O214      0.54409      .   S
    C137   O215      0.70060      .   S
    C132   O215      0.70060      .   S
    C77    O216      0.54411      .   S
    C12    O216      0.54411      .   S
    C77    O217      0.70056      .   S
    C72    O217      0.70056      .   S
    C125   O218      0.71215      .   S
    C152   O218      0.71215      .   S
    C65    O219      0.71232      .   S
    C143   O219      0.71232      .   S
    C134   O220      0.54575      .   S
    C55    O220      0.54575      .   S
    C134   O221      0.69729      .   S
    C133   O221      0.69729      .   S
    C74    O222      0.54576  1_655   S
    C10    O222      0.54576      .   S
    C74    O223      0.69327      .   S
    C73    O223      0.69327      .   S
    C49    O224      0.54077      .   S
    C124   O224      0.54077      .   S
    C4     O225      0.54077      .   S
    C64    O225      0.54077      .   S
    C152   O226      0.69713  1_665   S
    C124   O226      0.69713      .   S
    C152   O227      0.69263  1_655   S
    C122   O227      0.69263      .   S
    C143   O228      0.69569  1_545   S
    C64    O228      0.69569      .   S
    C143   O229      0.68550      .   S
    C62    O229      0.68550      .   S
    C132   O230      0.70141      .   S
    C133   O230      0.70141      .   S
    C132   O231      0.75124      .   S
    C131   O231      0.75124      .   S
    C72    O232      0.70135      .   S
    C73    O232      0.70135      .   S
    C72    O233      0.75086      .   S
    C71    O233      0.75086      .   S
    C133   O234      0.54492      .   S
    C54    O234      0.54492      .   S
    C73    O235      0.54178      .   S
    C9     O235      0.54178  1_455   S
    C64    O236      0.68368      .   S
    C63    O236      0.68368      .   S
    C124   O237      0.68368      .   S
    C123   O237      0.68368      .   S
    C2     O238      0.54147      .   S
    C62    O238      0.54147      .   S
    C47    O239      0.54143  1_655   S
    C122   O239      0.54143      .   S
    C62    O240      0.66440      .   S
    C142   O240      0.66440      .   S
    C122   O241      0.66430      .   S
    C151   O241      0.66430      .   S
    C160   O242      0.62646      .   S
    C131   O242      0.62646      .   S
    C154   O243      0.62642      .   S
    C71    O243      0.62642      .   S
    C131   O244      0.65166      .   S
    C161   O244      0.65166      .   S
    C71    O245      0.65172      .   S
    C155   O245      0.65172      .   S
    C63    O246      0.69328  1_565   S
    C142   O246      0.69328      .   S
    C63    O247      0.54170      .   S
    C3     O247      0.54170      .   S
    C123   O248      0.69322  1_545   S
    C151   O248      0.69322      .   S
    C123   O249      0.54169      .   S
    C48    O249      0.54169      .   S
    C142   O250      1.05454      .   S
    C0     O250      1.05454      .   S
    C151   O251      1.05237      .   S
    C1     O251      1.05237      .   S
    C161   O252      0.99678      .   S
    C1     O252      0.99678      .   S
    C155   O253      0.99612      .   S
    C0     O253      0.99612      .   S
    C0     O254      0.99618      .   S
    C157   O254      0.99618      .   S
    C0     O255      1.05255      .   S
    C145   O255      1.05255      .   S
    C1     O256      0.99696      .   S
    C159   O256      0.99696      .   S
    C1     O257      1.05160      .   S
    C148   O257      1.05160      .   S
    C157   O258      0.65148      .   S
    C91    O258      0.65148      .   S
    C159   O259      0.65163      .   S
    C111   O259      0.65163      .   S
    C33    O260      0.54167      .   S
    C103   O260      0.54167      .   S
    C18    O261      0.54168      .   S
    C83    O261      0.54168      .   S
    C148   O262      0.69322      .   S
    C103   O262      0.69322  1_545   S
    C148   O263      0.66429      .   S
    C102   O263      0.66429      .   S
    C145   O264      0.69325      .   S
    C83    O264      0.69325  1_565   S
    C145   O265      0.66436      .   S
    C82    O265      0.66436      .   S
    C103   O266      0.68365      .   S
    C104   O266      0.68365      .   S
    C83    O267      0.68367      .   S
    C84    O267      0.68367      .   S
    C91    O268      0.62640      .   S
    C156   O268      0.62640      .   S
    C91    O269      0.75106      .   S
    C92    O269      0.75106      .   S
    C111   O270      0.62642      .   S
    C158   O270      0.62642      .   S
    C111   O271      0.75138      .   S
    C112   O271      0.75138      .   S
    C24    O272      0.54493      .   S
    C93    O272      0.54493      .   S
    C39    O273      0.54969  1_655   S
    C113   O273      0.54969      .   S
    C102   O274      0.54147      .   S
    C32    O274      0.54147      .   S
    C102   O275      0.68524      .   S
    C149   O275      0.68524      .   S
    C82    O276      0.54002      .   S
    C17    O276      0.54002  1_455   S
    C82    O277      0.67933      .   S
    C146   O277      0.67933  1_455   S
    C104   O278      0.69565      .   S
    C149   O278      0.69565  1_565   S
    C104   O279      0.54076      .   S
    C34    O279      0.54076      .   S
    C84    O280      0.69277      .   S
    C146   O280      0.69277  1_445   S
    C84    O281      0.54076      .   S
    C19    O281      0.54076      .   S
    C93    O282      0.70137      .   S
    C92    O282      0.70137      .   S
    C93    O283      0.69728      .   S
    C94    O283      0.69728      .   S
    C113   O284      0.70140      .   S
    C112   O284      0.70140      .   S
    C113   O285      0.70012      .   S
    C114   O285      0.70012  1_655   S
    C92    O286      0.70052      .   S
    C97    O286      0.70052      .   S
    C112   O287      0.70062      .   S
    C117   O287      0.70062      .   S
    C146   O288      0.71211      .   S
    C85    O288      0.71211      .   S
    C149   O289      0.71201      .   S
    C105   O289      0.71201      .   S
    C23    O290      0.54363      .   S
    C90    O290      0.54363      .   S
    C38    O291      0.54364      .   S
    C110   O291      0.54364      .   S
    C25    O292      0.54577      .   S
    C94    O292      0.54577      .   S
    C40    O293      0.54575      .   S
    C114   O293      0.54575      .   S
    C94    O294      0.70306      .   S
    C95    O294      0.70306      .   S
    C114   O295      0.70609  1_655   S
    C115   O295      0.70609      .   S
    C85    O296      0.69877  1_545   S
    C90    O296      0.69877      .   S
    C85    O297      0.70187      .   S
    C86    O297      0.70187      .   S
    C105   O298      0.69872  1_565   S
    C110   O298      0.69872      .   S
    C105   O299      0.70187      .   S
    C106   O299      0.70187      .   S
    C97    O300      0.54407      .   S
    C27    O300      0.54407      .   S
    C97    O301      0.69522      .   S
    C96    O301      0.69522      .   S
    C117   O302      0.54410      .   S
    C42    O302      0.54410      .   S
    C117   O303      0.69532      .   S
    C116   O303      0.69532      .   S
    C90    O304      0.69476      .   S
    C89    O304      0.69476      .   S
    C110   O305      0.69470      .   S
    C109   O305      0.69470      .   S
    C20    O306      0.54465      .   S
    C86    O306      0.54465      .   S
    C35    O307      0.54466      .   S
    C106   O307      0.54466      .   S
    C43    O308      0.54966      .   S
    C120   O308      0.54966      .   S
    C28    O309      0.54966      .   S
    C100   O309      0.54966      .   S
    C86    O310      0.69402      .   S
    C87    O310      0.69402      .   S
    C106   O311      0.69399      .   S
    C107   O311      0.69399      .   S
    C96    O312      0.70237      .   S
    C95    O312      0.70237      .   S
    C96    O313      0.54439      .   S
    C26    O313      0.54439      .   S
    C95    O314      0.74199      .   S
    C98    O314      0.74199      .   S
    C116   O315      0.70243      .   S
    C115   O315      0.70243      .   S
    C116   O316      0.54442      .   S
    C41    O316      0.54442      .   S
    C115   O317      0.74222      .   S
    C118   O317      0.74222      .   S
    C89    O318      0.54484      .   S
    C22    O318      0.54484      .   S
    C89    O319      0.70207      .   S
    C88    O319      0.70207      .   S
    C109   O320      0.54483      .   S
    C37    O320      0.54483      .   S
    C109   O321      0.70203      .   S
    C108   O321      0.70203      .   S
    C87    O322      0.70497      .   S
    C88    O322      0.70497  1_565   S
    C87    O323      0.54419      .   S
    C21    O323      0.54419      .   S
    C107   O324      0.70492      .   S
    C108   O324      0.70492  1_545   S
    C107   O325      0.54417      .   S
    C36    O325      0.54417      .   S
    C120   O326      0.55012      .   S
    C45    O326      0.55012      .   S
    C120   O327      0.54940      .   S
    C44    O327      0.54940      .   S
    C120   O328      0.75405      .   S
    C119   O328      0.75405      .   S
    C100   O329      0.55011      .   S
    C30    O329      0.55011      .   S
    C100   O330      0.54941      .   S
    C29    O330      0.54941      .   S
    C100   O331      0.75405      .   S
    C99    O331      0.75405      .   S
    C88    O332      0.70642      .   S
    C147   O332      0.70642      .   S
    C108   O333      0.70629      .   S
    C150   O333      0.70629      .   S
    C98    O334      0.70625      .   S
    C99    O334      0.70625      .   S
    C98    O335      0.70177      .   S
    C101   O335      0.70177      .   S
    C118   O336      0.70630      .   S
    C119   O336      0.70630      .   S
    C118   O337      0.70262      .   S
    C121   O337      0.70262  1_655   S
    C31    O338      0.54621      .   S
    C101   O338      0.54621      .   S
    C46    O339      0.54621      .   S
    C121   O339      0.54621      .   S
