# CIF file generated by openbabel 2.4.90, see http://openbabel.sf.net
data_I
_chemical_name_common ''
_cell_length_a 15.375
_cell_length_b 15.377
_cell_length_c 17.986
_cell_angle_alpha 95.482
_cell_angle_beta 96.329
_cell_angle_gamma 94.366
_space_group_name_H-M_alt 'P 1'
_space_group_name_Hall 'P 1'
loop_
    _symmetry_equiv_pos_as_xyz
    x,y,z
loop_
    _atom_site_label
    _atom_site_type_symbol
    _atom_site_fract_x
    _atom_site_fract_y
    _atom_site_fract_z
    _atom_site_occupancy
    H0      H    0.30028   0.00481   0.12436   1.000
    H1      H    0.45875   0.99424   0.11843   1.000
    H2      H    0.41985   0.01326   0.87956   1.000
    H3      H    0.25994   0.02015   0.88627   1.000
    H4      H    0.03351   0.14938   0.21714   1.000
    H5      H    0.03100   0.15055   0.35611   1.000
    H6      H    0.96856   0.86966   0.32016   1.000
    H7      H    0.97226   0.87991   0.18264   1.000
    H8      H    0.69293   0.92250   0.87881   1.000
    H9      H    0.53365   0.92896   0.88326   1.000
    H10     H    0.58564   0.00000   0.10680   1.000
    H11     H    0.74512   0.00000   0.10334   1.000
    H12     H    0.96875   0.85120   0.78579   1.000
    H13     H    0.96945   0.85210   0.64686   1.000
    H14     H    0.02436   0.13391   0.68469   1.000
    H15     H    0.02242   0.12169   0.82208   1.000
    H16     H    0.46513   0.62237   0.54757   1.000
    H17     H    0.30369   0.62096   0.55072   1.000
    H18     H    0.34724   0.69459   0.79008   1.000
    H19     H    0.50780   0.69001   0.78630   1.000
    H20     H    0.05965   0.63673   0.79068   1.000
    H21     H    0.21800   0.62437   0.78588   1.000
    H22     H    0.19069   0.69527   0.55841   1.000
    H23     H    0.03040   0.69835   0.56202   1.000
    H24     H    0.86137   0.41127   0.76631   1.000
    H25     H    0.86699   0.25005   0.76743   1.000
    H26     H    0.67405   0.20776   0.57172   1.000
    H27     H    0.67378   0.36869   0.56894   1.000
    H28     H    0.74789   0.92840   0.55639   1.000
    H29     H    0.75104   0.08970   0.55127   1.000
    H30     H    0.79060   0.12769   0.79391   1.000
    H31     H    0.79027   0.96804   0.79778   1.000
    H32     H    0.75533   0.54154   0.85407   1.000
    H33     H    0.76581   0.52644   0.99283   1.000
    H34     H    0.81859   0.80813   0.03208   1.000
    H35     H    0.80627   0.81185   0.89276   1.000
    H36     H    0.83659   0.77749   0.49750   1.000
    H37     H    0.86251   0.78100   0.36315   1.000
    H38     H    0.71317   0.52767   0.31500   1.000
    H39     H    0.69158   0.53608   0.45123   1.000
    H40     H    0.54107   0.37401   0.45400   1.000
    H41     H    0.70238   0.37697   0.45060   1.000
    H42     H    0.65740   0.29991   0.21172   1.000
    H43     H    0.49690   0.30241   0.21642   1.000
    H44     H    0.94352   0.35697   0.20727   1.000
    H45     H    0.78535   0.36891   0.21341   1.000
    H46     H    0.81707   0.30703   0.44351   1.000
    H47     H    0.97710   0.30460   0.43842   1.000
    H48     H    0.15119   0.58338   0.22817   1.000
    H49     H    0.14192   0.74376   0.22791   1.000
    H50     H    0.32232   0.78776   0.43190   1.000
    H51     H    0.32571   0.62712   0.43357   1.000
    H52     H    0.25124   0.06504   0.44700   1.000
    H53     H    0.24774   0.90358   0.45015   1.000
    H54     H    0.20805   0.86947   0.20736   1.000
    H55     H    0.20757   0.02946   0.20583   1.000
    H56     H    0.25635   0.45095   0.14662   1.000
    H57     H    0.23920   0.46828   0.00829   1.000
    H58     H    0.17784   0.18749   0.96690   1.000
    H59     H    0.19834   0.18173   0.10610   1.000
    H60     H    0.16241   0.22154   0.50295   1.000
    H61     H    0.13146   0.21882   0.63597   1.000
    H62     H    0.28579   0.46930   0.68744   1.000
    H63     H    0.31183   0.46032   0.55236   1.000
    C64     C    0.26959   0.01341   0.00560   1.000
    C65     C    0.32675   0.00680   0.07084   1.000
    C66     C    0.41610   0.00157   0.06724   1.000
    C67     C    0.45184   0.00316   0.99850   1.000
    C68     C    0.39397   0.01028   0.93340   1.000
    C69     C    0.30446   0.01511   0.93687   1.000
    C70     C    0.17283   0.01668   0.00887   1.000
    C71     C    0.01872   0.08907   0.24228   1.000
    C72     C    0.01724   0.08946   0.31940   1.000
    C73     C    0.99935   0.00985   0.34910   1.000
    C74     C    0.98252   0.93281   0.29961   1.000
    C75     C    0.98493   0.93783   0.22338   1.000
    C76     C    0.99838   0.00612   0.43052   1.000
    N77     N    0.02966   0.07853   0.47745   1.000
    N78     N    0.96588   0.92998   0.45332   1.000
    N79     N    0.99508   0.98656   0.80863   1.000
    N80     N    0.96531   0.92559   0.52643   1.000
    C81     C    0.72968   0.98683   0.99119   1.000
    C82     C    0.66929   0.95315   0.92902   1.000
    C83     C    0.57949   0.95781   0.93144   1.000
    C84     C    0.54707   0.99753   0.99544   1.000
    C85     C    0.60847   0.00000   0.05700   1.000
    C86     C    0.69796   0.00000   0.05539   1.000
    C87     C    0.82679   0.98305   0.99049   1.000
    C88     C    0.98144   0.91222   0.76108   1.000
    C89     C    0.98199   0.91296   0.68392   1.000
    C90     C    0.99726   0.99337   0.65480   1.000
    C91     C    0.01248   0.07015   0.70477   1.000
    C92     C    0.01108   0.06399   0.78099   1.000
    C93     C    0.99723   0.99780   0.57342   1.000
    C94     C    0.49650   0.65624   0.66679   1.000
    C95     C    0.43830   0.63743   0.60046   1.000
    C96     C    0.34812   0.63768   0.60251   1.000
    C97     C    0.31299   0.65802   0.67054   1.000
    C98     C    0.37215   0.67668   0.73678   1.000
    C99     C    0.46225   0.67517   0.73500   1.000
    C100    C    0.59391   0.65802   0.66490   1.000
    C101    C    0.03470   0.66928   0.67699   1.000
    C102    C    0.08874   0.64923   0.73987   1.000
    C103    C    0.17820   0.64368   0.73724   1.000
    C104    C    0.21731   0.66069   0.67231   1.000
    C105    C    0.16244   0.68084   0.60934   1.000
    C106    C    0.07253   0.68388   0.61128   1.000
    C107    C    0.93802   0.67404   0.67900   1.000
    C108    C    0.76779   0.40009   0.66723   1.000
    C109    C    0.82120   0.36584   0.72361   1.000
    C110    C    0.82348   0.27569   0.72434   1.000
    C111    C    0.77097   0.21675   0.66973   1.000
    C112    C    0.71726   0.25180   0.61350   1.000
    C113    C    0.71630   0.34199   0.61197   1.000
    C114    C    0.76544   0.49722   0.66646   1.000
    C115    C    0.76809   0.93767   0.67713   1.000
    C116    C    0.75717   0.97303   0.60796   1.000
    C117    C    0.75858   0.06321   0.60553   1.000
    C118    C    0.77090   0.12102   0.67218   1.000
    C119    C    0.78212   0.08486   0.74124   1.000
    C120    C    0.78066   0.99461   0.74378   1.000
    C121    C    0.76822   0.84047   0.67905   1.000
    C122    C    0.76799   0.59847   0.89596   1.000
    C123    C    0.77381   0.59062   0.97248   1.000
    C124    C    0.79262   0.66654   0.02329   1.000
    C125    C    0.80320   0.74777   0.99450   1.000
    C126    C    0.79639   0.75008   0.91700   1.000
    C127    C    0.80268   0.66009   0.10491   1.000
    C128    C    0.80204   0.65370   0.24780   1.000
    C129    C    0.80997   0.72416   0.45487   1.000
    C130    C    0.82431   0.72545   0.38012   1.000
    C131    C    0.78936   0.65438   0.32786   1.000
    C132    C    0.74090   0.58450   0.35338   1.000
    C133    C    0.72882   0.58879   0.42905   1.000
    C134    C    0.50892   0.33817   0.33572   1.000
    C135    C    0.56757   0.35848   0.40160   1.000
    C136    C    0.65776   0.35919   0.39907   1.000
    C137    C    0.69249   0.33849   0.33089   1.000
    C138    C    0.63284   0.31814   0.26511   1.000
    C139    C    0.54275   0.31856   0.26700   1.000
    C140    C    0.41151   0.33598   0.33794   1.000
    C141    C    0.97066   0.32916   0.32220   1.000
    C142    C    0.91551   0.34656   0.25902   1.000
    C143    C    0.82610   0.35176   0.26243   1.000
    C144    C    0.78819   0.33695   0.32842   1.000
    C145    C    0.84426   0.31965   0.39170   1.000
    C146    C    0.93405   0.31700   0.38898   1.000
    C147    C    0.06721   0.32396   0.31929   1.000
    C148    C    0.23793   0.59500   0.33158   1.000
    C149    C    0.18746   0.62885   0.27313   1.000
    C150    C    0.18311   0.71886   0.27298   1.000
    C151    C    0.23070   0.77821   0.33030   1.000
    C152    C    0.28225   0.74351   0.38816   1.000
    C153    C    0.28508   0.65346   0.38910   1.000
    C154    C    0.24144   0.49800   0.33260   1.000
    C155    C    0.23095   0.05774   0.32637   1.000
    C156    C    0.24166   0.02123   0.39499   1.000
    C157    C    0.24024   0.93085   0.39625   1.000
    C158    C    0.22860   0.87395   0.32902   1.000
    C159    C    0.21660   0.91134   0.26056   1.000
    C160    C    0.21763   0.00169   0.25924   1.000
    C161    C    0.23299   0.15513   0.32490   1.000
    C162    C    0.24050   0.39469   0.10435   1.000
    C163    C    0.23077   0.40379   0.02800   1.000
    C164    C    0.20698   0.32896   0.97667   1.000
    C165    C    0.19657   0.24728   0.00463   1.000
    C166    C    0.20782   0.24368   0.08210   1.000
    C167    C    0.19262   0.33723   0.89543   1.000
    C168    C    0.19190   0.34508   0.75263   1.000
    C169    C    0.18886   0.27449   0.54598   1.000
    C170    C    0.17181   0.27361   0.62013   1.000
    C171    C    0.20682   0.34405   0.67304   1.000
    C172    C    0.25788   0.41294   0.64863   1.000
    C173    C    0.27246   0.40832   0.57350   1.000
    N174    N    0.00353   0.01443   0.19515   1.000
    N175    N    0.02912   0.07413   0.55061   1.000
    N176    N    0.77969   0.67669   0.86840   1.000
    N177    N    0.77936   0.58178   0.12890   1.000
    N178    N    0.77910   0.57830   0.20216   1.000
    N179    N    0.84126   0.72653   0.22478   1.000
    N180    N    0.84172   0.72999   0.15143   1.000
    N181    N    0.76251   0.65721   0.47902   1.000
    N182    N    0.22827   0.31617   0.13137   1.000
    N183    N    0.21574   0.41586   0.87187   1.000
    N184    N    0.21525   0.42013   0.79867   1.000
    N185    N    0.14993   0.27350   0.77527   1.000
    N186    N    0.14994   0.26933   0.84866   1.000
    N187    N    0.23884   0.34043   0.52291   1.000
    O188    O    0.14505   0.01481   0.07311   1.000
    O189    O    0.12495   0.02182   0.94710   1.000
    O190    O    0.85519   0.96294   0.92739   1.000
    O191    O    0.87431   0.00000   0.05344   1.000
    O192    O    0.64167   0.66247   0.72790   1.000
    O193    O    0.62118   0.65565   0.60038   1.000
    O194    O    0.91175   0.68906   0.74399   1.000
    O195    O    0.88970   0.66346   0.61653   1.000
    O196    O    0.78487   0.54377   0.72953   1.000
    O197    O    0.74460   0.52554   0.60325   1.000
    O198    O    0.77410   0.81124   0.74333   1.000
    O199    O    0.76364   0.79432   0.61578   1.000
    O200    O    0.36371   0.32920   0.27476   1.000
    O201    O    0.38433   0.34052   0.40254   1.000
    O202    O    0.09353   0.31085   0.25453   1.000
    O203    O    0.11545   0.33197   0.38215   1.000
    O204    O    0.22556   0.45130   0.26946   1.000
    O205    O    0.25941   0.47017   0.39659   1.000
    O206    O    0.22588   0.18411   0.26057   1.000
    O207    O    0.24092   0.20145   0.38832   1.000
loop_
    _geom_bond_atom_site_label_1
    _geom_bond_atom_site_label_2
    _geom_bond_distance
    _geom_bond_site_symmetry_2
    _ccdc_geom_bond_type
    C165   C166      1.39196      .   S
    C165   H58       1.08909  1_554   S
    C165   C164      1.40135  1_554   S
    C64    C70       1.49984      .   S
    C64    C65       1.40307      .   S
    C64    C69       1.40225  1_554   S
    H57    C163      1.08786      .   S
    C70    O188      1.27731      .   S
    C70    O189      1.27585  1_554   S
    C124   C127      1.47274      .   S
    C124   C123      1.40292  1_554   S
    C124   C125      1.40205  1_554   S
    C163   C162      1.38649      .   S
    C163   C164      1.40312  1_554   S
    H34    C125      1.08899  1_554   S
    O191   C87       1.27123  1_544   S
    C86    C85       1.37943      .   S
    C86    H11       1.06376      .   S
    C86    C81       1.30639  1_544   S
    C85    H10       0.99740      .   S
    C85    C84       1.36916  1_544   S
    C66    C65       1.39044      .   S
    C66    H1        1.09008  1_545   S
    C66    C67       1.40878  1_554   S
    C65    H0        1.08779      .   S
    C166   H59       1.08914      .   S
    C166   N182      1.35027      .   S
    C162   N182      1.35164      .   S
    C162   H56       1.08959      .   S
    C127   N177      1.35368      .   S
    C127   N180      1.35461      .   S
    N177   N178      1.32426      .   S
    N180   N179      1.32618      .   S
    H7     C75       1.08872      .   S
    N174   C75       1.34988  1_445   S
    N174   C71       1.34913      .   S
    N178   C128      1.35442      .   S
    H55    C160      1.08842      .   S
    H44    C142      1.08803      .   S
    H54    C159      1.09040      .   S
    H42    C138      1.08993      .   S
    H45    C143      1.08967      .   S
    H43    C139      1.08396      .   S
    H4     C71       1.08931      .   S
    C75    C74       1.38497      .   S
    N179   C128      1.35288      .   S
    H49    C150      1.08996      .   S
    H48    C149      1.08943      .   S
    C71    C72       1.38924      .   S
    C128   C131      1.47342      .   S
    O202   C147      1.27774      .   S
    C142   C143      1.39072      .   S
    C142   C141      1.40073      .   S
    C160   C159      1.39079  1_545   S
    C160   C155      1.40081      .   S
    C159   C158      1.40782      .   S
    O206   C161      1.27564      .   S
    C143   C144      1.40870      .   S
    C138   C139      1.38979      .   S
    C138   C137      1.40897      .   S
    C139   C134      1.40839      .   S
    O204   C154      1.27332      .   S
    C150   C149      1.39096      .   S
    C150   C151      1.40833      .   S
    C149   C148      1.40158      .   S
    O200   C140      1.27433      .   S
    C74    H6        1.08623      .   S
    C74    C73       1.40136  1_565   S
    H38    C132      1.08855      .   S
    C147   C141      1.49907  1_455   S
    C147   O203      1.27210      .   S
    C72    C73       1.40199  1_455   S
    C72    H5        1.08794      .   S
    C141   C146      1.40362      .   S
    C161   C155      1.49834      .   S
    C161   O207      1.27445      .   S
    C155   C156      1.40260      .   S
    C131   C132      1.40292      .   S
    C131   C130      1.40340      .   S
    C144   C137      1.47880      .   S
    C144   C145      1.40915      .   S
    C158   C151      1.47740      .   S
    C158   C157      1.40923      .   S
    C151   C152      1.40872      .   S
    C137   C136      1.40928      .   S
    C148   C154      1.49849      .   S
    C148   C153      1.40058      .   S
    C154   O205      1.27521      .   S
    C134   C140      1.50048      .   S
    C134   C135      1.40200      .   S
    C140   O201      1.27493      .   S
    C73    C76       1.47266      .   S
    C132   C133      1.38982      .   S
    H37    C130      1.08664      .   S
    C130   C129      1.38790      .   S
    C152   C153      1.39027      .   S
    C152   H50       1.09019      .   S
    C146   C145      1.39042      .   S
    C146   H47       1.08948      .   S
    C153   H51       1.08829      .   S
    C145   H46       1.09035      .   S
    C156   C157      1.39059  1_545   S
    C156   H52       1.08846      .   S
    C157   H53       1.09061      .   S
    C136   C135      1.39158      .   S
    C136   H41       1.08960      .   S
    C135   H40       1.08060      .   S
    C133   H39       1.08869      .   S
    C133   N181      1.34787      .   S
    C76    N78       1.35522  1_545   S
    C76    N77       1.35380  1_655   S
    N78    N80       1.32408      .   S
    C129   N181      1.34981      .   S
    C129   H36       1.08973      .   S
    N77    N175      1.32493      .   S
    H60    C169      1.08948      .   S
    N187   C169      1.35020      .   S
    N187   C173      1.34818      .   S
    N80    C93       1.35439      .   S
    C169   C170      1.38832      .   S
    H16    C95       1.08979      .   S
    N175   C93       1.35469  1_445   S
    H17    C96       1.08976      .   S
    H29    C117      1.09086      .   S
    H63    C173      1.08875      .   S
    H28    C116      1.08900      .   S
    H22    C105      1.09032      .   S
    H23    C106      1.08955      .   S
    H27    C113      1.08854      .   S
    H26    C112      1.09035      .   S
    C93    C90       1.47172      .   S
    C173   C172      1.39002      .   S
    O193   C100      1.27488      .   S
    C95    C96       1.39133      .   S
    C95    C94       1.40246      .   S
    C96    C97       1.40891      .   S
    O197   C114      1.27294      .   S
    C117   C116      1.39023  1_545   S
    C117   C118      1.40846      .   S
    C116   C115      1.40309      .   S
    C105   C106      1.39090      .   S
    C105   C104      1.40946      .   S
    C106   C101      1.40274      .   S
    C113   C112      1.39084      .   S
    C113   C108      1.40074      .   S
    C112   C111      1.40823      .   S
    O199   C121      1.27431      .   S
    O195   C107      1.26632      .   S
    C170   H61       1.08690      .   S
    C170   C171      1.40345      .   S
    H13    C89       1.08738      .   S
    C172   C171      1.40343      .   S
    C172   H62       1.08818      .   S
    C90    C89       1.40176      .   S
    C90    C91       1.40188  1_665   S
    C100   C94       1.50011      .   S
    C100   O192      1.27356      .   S
    C114   C108      1.49812      .   S
    C114   O196      1.27513      .   S
    C94    C99       1.40168      .   S
    C108   C109      1.40146      .   S
    C111   C118      1.47677      .   S
    C111   C110      1.40781      .   S
    C97    C104      1.47862      .   S
    C97    C98       1.40890      .   S
    C118   C119      1.40752      .   S
    C104   C103      1.40816      .   S
    C171   C168      1.47334      .   S
    C101   C107      1.49806  1_455   S
    C101   C102      1.40102      .   S
    C115   C121      1.49854      .   S
    C115   C120      1.40129      .   S
    C107   O194      1.28436      .   S
    C121   O198      1.27643      .   S
    C89    C88       1.38989      .   S
    H14    C91       1.08634      .   S
    C91    C92       1.38555      .   S
    C109   C110      1.39062      .   S
    C109   H24       1.08924      .   S
    C110   H25       1.08989      .   S
    C99    C98       1.39109      .   S
    C99    H19       1.08944      .   S
    C98    H18       1.09000      .   S
    C103   C102      1.39030      .   S
    C103   H21       1.08964      .   S
    C102   H20       1.08752      .   S
    C119   C120      1.39143  1_545   S
    C119   H30       1.09029      .   S
    C120   H31       1.08874      .   S
    C168   N185      1.35254      .   S
    C168   N184      1.35469      .   S
    C88    H12       1.08939      .   S
    C88    N79       1.34880      .   S
    N185   N186      1.32765      .   S
    C92    N79       1.34941  1_445   S
    C92    H15       1.08928      .   S
    N184   N183      1.32369      .   S
    N186   C167      1.35449      .   S
    H32    C122      1.08972      .   S
    N176   C122      1.35118      .   S
    N176   C126      1.34956      .   S
    N183   C167      1.35415      .   S
    H8     C82       1.08946      .   S
    H2     C68       1.09030      .   S
    H9     C83       1.09030      .   S
    H3     C69       1.08945      .   S
    H35    C126      1.08949      .   S
    C167   C164      1.47261      .   S
    C122   C123      1.38670      .   S
    C126   C125      1.39035      .   S
    O190   C87       1.27949      .   S
    C82    C83       1.39321      .   S
    C82    C81       1.40284      .   S
    C83    C84       1.40888      .   S
    C68    C69       1.39179      .   S
    C68    C67       1.40867      .   S
    C123   H33       1.08790      .   S
    C87    C81       1.49991      .   S
    C84    C67       1.48000  1_565   S
