# CIF file generated by openbabel 2.4.90, see http://openbabel.sf.net
data_I
_chemical_name_common ''
_cell_length_a 15.375
_cell_length_b 15.377
_cell_length_c 17.986
_cell_angle_alpha 95.482
_cell_angle_beta 96.329
_cell_angle_gamma 94.366
_space_group_name_H-M_alt 'P 1'
_space_group_name_Hall 'P 1'
loop_
    _symmetry_equiv_pos_as_xyz
    x,y,z
loop_
    _atom_site_label
    _atom_site_type_symbol
    _atom_site_fract_x
    _atom_site_fract_y
    _atom_site_fract_z
    _atom_site_occupancy
    Zn0     Zn   0.98922   0.98871   0.92210   1.000
    Zn1     Zn   0.77746   0.67849   0.75320   1.000
    Zn2     Zn   0.75307   0.65904   0.59326   1.000
    Zn3     Zn   0.22911   0.31531   0.24715   1.000
    Zn4     Zn   0.25180   0.33730   0.40903   1.000
    H5      H    0.30028   0.00481   0.12436   1.000
    H6      H    0.45875   0.99424   0.11843   1.000
    H7      H    0.41985   0.01326   0.87956   1.000
    H8      H    0.25994   0.02015   0.88627   1.000
    H9      H    0.03351   0.14938   0.21714   1.000
    H10     H    0.03100   0.15055   0.35611   1.000
    H11     H    0.96856   0.86966   0.32016   1.000
    H12     H    0.97226   0.87991   0.18264   1.000
    H13     H    0.69293   0.92250   0.87881   1.000
    H14     H    0.53365   0.92896   0.88326   1.000
    H15     H    0.58564   0.00000   0.10680   1.000
    H16     H    0.74512   0.00000   0.10334   1.000
    H17     H    0.96875   0.85120   0.78579   1.000
    H18     H    0.96945   0.85210   0.64686   1.000
    H19     H    0.02436   0.13391   0.68469   1.000
    H20     H    0.02242   0.12169   0.82208   1.000
    H21     H    0.46513   0.62237   0.54757   1.000
    H22     H    0.30369   0.62096   0.55072   1.000
    H23     H    0.34724   0.69459   0.79008   1.000
    Zn24    Zn   0.01084   0.01061   0.08136   1.000
    H25     H    0.50780   0.69001   0.78630   1.000
    H26     H    0.05965   0.63673   0.79068   1.000
    H27     H    0.21800   0.62437   0.78588   1.000
    H28     H    0.19069   0.69527   0.55841   1.000
    H29     H    0.03040   0.69835   0.56202   1.000
    H30     H    0.86137   0.41127   0.76631   1.000
    H31     H    0.86699   0.25005   0.76743   1.000
    H32     H    0.67405   0.20776   0.57172   1.000
    H33     H    0.67378   0.36869   0.56894   1.000
    H34     H    0.74789   0.92840   0.55639   1.000
    H35     H    0.75104   0.08970   0.55127   1.000
    H36     H    0.79060   0.12769   0.79391   1.000
    H37     H    0.79027   0.96804   0.79778   1.000
    H38     H    0.75533   0.54154   0.85407   1.000
    H39     H    0.76581   0.52644   0.99283   1.000
    H40     H    0.81859   0.80813   0.03208   1.000
    H41     H    0.80627   0.81185   0.89276   1.000
    H42     H    0.83659   0.77749   0.49750   1.000
    H43     H    0.86251   0.78100   0.36315   1.000
    H44     H    0.71317   0.52767   0.31500   1.000
    H45     H    0.69158   0.53608   0.45123   1.000
    H46     H    0.54107   0.37401   0.45400   1.000
    H47     H    0.70238   0.37697   0.45060   1.000
    H48     H    0.65740   0.29991   0.21172   1.000
    H49     H    0.49690   0.30241   0.21642   1.000
    H50     H    0.94352   0.35697   0.20727   1.000
    H51     H    0.78535   0.36891   0.21341   1.000
    H52     H    0.81707   0.30703   0.44351   1.000
    H53     H    0.97710   0.30460   0.43842   1.000
    H54     H    0.15119   0.58338   0.22817   1.000
    H55     H    0.14192   0.74376   0.22791   1.000
    H56     H    0.32232   0.78776   0.43190   1.000
    H57     H    0.32571   0.62712   0.43357   1.000
    H58     H    0.25124   0.06504   0.44700   1.000
    H59     H    0.24774   0.90358   0.45015   1.000
    H60     H    0.20805   0.86947   0.20736   1.000
    H61     H    0.20757   0.02946   0.20583   1.000
    H62     H    0.25635   0.45095   0.14662   1.000
    H63     H    0.23920   0.46828   0.00829   1.000
    H64     H    0.17784   0.18749   0.96690   1.000
    H65     H    0.19834   0.18173   0.10610   1.000
    H66     H    0.16241   0.22154   0.50295   1.000
    H67     H    0.13146   0.21882   0.63597   1.000
    H68     H    0.28579   0.46930   0.68744   1.000
    H69     H    0.31183   0.46032   0.55236   1.000
    C70     C    0.26959   0.01341   0.00560   1.000
    C71     C    0.32675   0.00680   0.07084   1.000
    C72     C    0.41610   0.00157   0.06724   1.000
    C73     C    0.45184   0.00316   0.99850   1.000
    C74     C    0.39397   0.01028   0.93340   1.000
    C75     C    0.30446   0.01511   0.93687   1.000
    C76     C    0.17283   0.01668   0.00887   1.000
    C77     C    0.01872   0.08907   0.24228   1.000
    C78     C    0.01724   0.08946   0.31940   1.000
    C79     C    0.99935   0.00985   0.34910   1.000
    C80     C    0.98252   0.93281   0.29961   1.000
    C81     C    0.98493   0.93783   0.22338   1.000
    C82     C    0.99838   0.00612   0.43052   1.000
    N83     N    0.02966   0.07853   0.47745   1.000
    N84     N    0.96588   0.92998   0.45332   1.000
    N85     N    0.99508   0.98656   0.80863   1.000
    N86     N    0.96531   0.92559   0.52643   1.000
    C87     C    0.72968   0.98683   0.99119   1.000
    C88     C    0.66929   0.95315   0.92902   1.000
    C89     C    0.57949   0.95781   0.93144   1.000
    C90     C    0.54707   0.99753   0.99544   1.000
    C91     C    0.60847   0.00000   0.05700   1.000
    C92     C    0.69796   0.00000   0.05539   1.000
    C93     C    0.82679   0.98305   0.99049   1.000
    C94     C    0.98144   0.91222   0.76108   1.000
    C95     C    0.98199   0.91296   0.68392   1.000
    C96     C    0.99726   0.99337   0.65480   1.000
    C97     C    0.01248   0.07015   0.70477   1.000
    C98     C    0.01108   0.06399   0.78099   1.000
    C99     C    0.99723   0.99780   0.57342   1.000
    C100    C    0.49650   0.65624   0.66679   1.000
    C101    C    0.43830   0.63743   0.60046   1.000
    C102    C    0.34812   0.63768   0.60251   1.000
    C103    C    0.31299   0.65802   0.67054   1.000
    C104    C    0.37215   0.67668   0.73678   1.000
    C105    C    0.46225   0.67517   0.73500   1.000
    C106    C    0.59391   0.65802   0.66490   1.000
    C107    C    0.03470   0.66928   0.67699   1.000
    C108    C    0.08874   0.64923   0.73987   1.000
    C109    C    0.17820   0.64368   0.73724   1.000
    C110    C    0.21731   0.66069   0.67231   1.000
    C111    C    0.16244   0.68084   0.60934   1.000
    C112    C    0.07253   0.68388   0.61128   1.000
    C113    C    0.93802   0.67404   0.67900   1.000
    C114    C    0.76779   0.40009   0.66723   1.000
    C115    C    0.82120   0.36584   0.72361   1.000
    C116    C    0.82348   0.27569   0.72434   1.000
    C117    C    0.77097   0.21675   0.66973   1.000
    C118    C    0.71726   0.25180   0.61350   1.000
    C119    C    0.71630   0.34199   0.61197   1.000
    C120    C    0.76544   0.49722   0.66646   1.000
    C121    C    0.76809   0.93767   0.67713   1.000
    C122    C    0.75717   0.97303   0.60796   1.000
    C123    C    0.75858   0.06321   0.60553   1.000
    C124    C    0.77090   0.12102   0.67218   1.000
    C125    C    0.78212   0.08486   0.74124   1.000
    C126    C    0.78066   0.99461   0.74378   1.000
    C127    C    0.76822   0.84047   0.67905   1.000
    C128    C    0.76799   0.59847   0.89596   1.000
    C129    C    0.77381   0.59062   0.97248   1.000
    C130    C    0.79262   0.66654   0.02329   1.000
    C131    C    0.80320   0.74777   0.99450   1.000
    C132    C    0.79639   0.75008   0.91700   1.000
    C133    C    0.80268   0.66009   0.10491   1.000
    C134    C    0.80204   0.65370   0.24780   1.000
    C135    C    0.80997   0.72416   0.45487   1.000
    C136    C    0.82431   0.72545   0.38012   1.000
    C137    C    0.78936   0.65438   0.32786   1.000
    C138    C    0.74090   0.58450   0.35338   1.000
    C139    C    0.72882   0.58879   0.42905   1.000
    C140    C    0.50892   0.33817   0.33572   1.000
    C141    C    0.56757   0.35848   0.40160   1.000
    C142    C    0.65776   0.35919   0.39907   1.000
    C143    C    0.69249   0.33849   0.33089   1.000
    C144    C    0.63284   0.31814   0.26511   1.000
    C145    C    0.54275   0.31856   0.26700   1.000
    C146    C    0.41151   0.33598   0.33794   1.000
    C147    C    0.97066   0.32916   0.32220   1.000
    C148    C    0.91551   0.34656   0.25902   1.000
    C149    C    0.82610   0.35176   0.26243   1.000
    C150    C    0.78819   0.33695   0.32842   1.000
    C151    C    0.84426   0.31965   0.39170   1.000
    C152    C    0.93405   0.31700   0.38898   1.000
    C153    C    0.06721   0.32396   0.31929   1.000
    C154    C    0.23793   0.59500   0.33158   1.000
    C155    C    0.18746   0.62885   0.27313   1.000
    C156    C    0.18311   0.71886   0.27298   1.000
    C157    C    0.23070   0.77821   0.33030   1.000
    C158    C    0.28225   0.74351   0.38816   1.000
    C159    C    0.28508   0.65346   0.38910   1.000
    C160    C    0.24144   0.49800   0.33260   1.000
    C161    C    0.23095   0.05774   0.32637   1.000
    C162    C    0.24166   0.02123   0.39499   1.000
    C163    C    0.24024   0.93085   0.39625   1.000
    C164    C    0.22860   0.87395   0.32902   1.000
    C165    C    0.21660   0.91134   0.26056   1.000
    C166    C    0.21763   0.00169   0.25924   1.000
    C167    C    0.23299   0.15513   0.32490   1.000
    C168    C    0.24050   0.39469   0.10435   1.000
    C169    C    0.23077   0.40379   0.02800   1.000
    C170    C    0.20698   0.32896   0.97667   1.000
    C171    C    0.19657   0.24728   0.00463   1.000
    C172    C    0.20782   0.24368   0.08210   1.000
    C173    C    0.19262   0.33723   0.89543   1.000
    C174    C    0.19190   0.34508   0.75263   1.000
    C175    C    0.18886   0.27449   0.54598   1.000
    C176    C    0.17181   0.27361   0.62013   1.000
    C177    C    0.20682   0.34405   0.67304   1.000
    C178    C    0.25788   0.41294   0.64863   1.000
    C179    C    0.27246   0.40832   0.57350   1.000
    N180    N    0.00353   0.01443   0.19515   1.000
    N181    N    0.02912   0.07413   0.55061   1.000
    N182    N    0.77969   0.67669   0.86840   1.000
    N183    N    0.77936   0.58178   0.12890   1.000
    N184    N    0.77910   0.57830   0.20216   1.000
    N185    N    0.84126   0.72653   0.22478   1.000
    N186    N    0.84172   0.72999   0.15143   1.000
    N187    N    0.76251   0.65721   0.47902   1.000
    N188    N    0.22827   0.31617   0.13137   1.000
    N189    N    0.21574   0.41586   0.87187   1.000
    N190    N    0.21525   0.42013   0.79867   1.000
    N191    N    0.14993   0.27350   0.77527   1.000
    N192    N    0.14994   0.26933   0.84866   1.000
    N193    N    0.23884   0.34043   0.52291   1.000
    O194    O    0.14505   0.01481   0.07311   1.000
    O195    O    0.12495   0.02182   0.94710   1.000
    O196    O    0.00000   0.85957   0.93629   1.000
    O197    O    0.01056   0.87480   0.06318   1.000
    O198    O    0.85519   0.96294   0.92739   1.000
    O199    O    0.87431   0.00000   0.05344   1.000
    O200    O    0.64167   0.66247   0.72790   1.000
    O201    O    0.62118   0.65565   0.60038   1.000
    O202    O    0.91175   0.68906   0.74399   1.000
    O203    O    0.88970   0.66346   0.61653   1.000
    O204    O    0.78487   0.54377   0.72953   1.000
    O205    O    0.74460   0.52554   0.60325   1.000
    O206    O    0.77410   0.81124   0.74333   1.000
    O207    O    0.76364   0.79432   0.61578   1.000
    O208    O    0.36371   0.32920   0.27476   1.000
    O209    O    0.38433   0.34052   0.40254   1.000
    O210    O    0.09353   0.31085   0.25453   1.000
    O211    O    0.11545   0.33197   0.38215   1.000
    O212    O    0.22556   0.45130   0.26946   1.000
    O213    O    0.25941   0.47017   0.39659   1.000
    O214    O    0.22588   0.18411   0.26057   1.000
    O215    O    0.24092   0.20145   0.38832   1.000
loop_
    _geom_bond_atom_site_label_1
    _geom_bond_atom_site_label_2
    _geom_bond_distance
    _geom_bond_site_symmetry_2
    _ccdc_geom_bond_type
    C171   C172      1.39196      .   S
    C171   H64       1.08909  1_554   S
    C171   C170      1.40135  1_554   S
    C70    C76       1.49984      .   S
    C70    C71       1.40307      .   S
    C70    C75       1.40225  1_554   S
    H63    C169      1.08786      .   S
    C76    O194      1.27731      .   S
    C76    O195      1.27585  1_554   S
    C130   C133      1.47274      .   S
    C130   C129      1.40292  1_554   S
    C130   C131      1.40205  1_554   S
    C169   C168      1.38649      .   S
    C169   C170      1.40312  1_554   S
    H40    C131      1.08899  1_554   S
    O199   Zn24      2.09404  1_655   S
    O199   C93       1.27123  1_544   S
    C92    C91       1.37943      .   S
    C92    H16       1.06376      .   S
    C92    C87       1.30639  1_544   S
    C91    H15       0.99740      .   S
    C91    C90       1.36916  1_544   S
    O197   Zn24      2.08220  1_565   S
    C72    C71       1.39044      .   S
    C72    H6        1.09008  1_545   S
    C72    C73       1.40878  1_554   S
    C71    H5        1.08779      .   S
    O194   Zn24      2.08160      .   S
    Zn24   N180      2.05755      .   S
    Zn24   Zn0       2.83155  1_444   S
    C172   H65       1.08914      .   S
    C172   N188      1.35027      .   S
    C168   N188      1.35164      .   S
    C168   H62       1.08959      .   S
    C133   N183      1.35368      .   S
    C133   N186      1.35461      .   S
    N183   N184      1.32426      .   S
    N188   Zn3       2.08233      .   S
    N186   N185      1.32618      .   S
    H12    C81       1.08872      .   S
    N180   C81       1.34988  1_445   S
    N180   C77       1.34913      .   S
    N184   C134      1.35442      .   S
    H61    C166      1.08842      .   S
    H50    C148      1.08803      .   S
    H60    C165      1.09040      .   S
    H48    C144      1.08993      .   S
    H51    C149      1.08967      .   S
    H49    C145      1.08396      .   S
    H9     C77       1.08931      .   S
    C81    C80       1.38497      .   S
    N185   C134      1.35288      .   S
    H55    C156      1.08996      .   S
    H54    C155      1.08943      .   S
    C77    C78       1.38924      .   S
    Zn3    O210      2.09969      .   S
    Zn3    O214      2.05227      .   S
    Zn3    O212      2.09719      .   S
    Zn3    O208      2.06411      .   S
    C134   C137      1.47342      .   S
    O210   C153      1.27774      .   S
    C148   C149      1.39072      .   S
    C148   C147      1.40073      .   S
    C166   C165      1.39079  1_545   S
    C166   C161      1.40081      .   S
    C165   C164      1.40782      .   S
    O214   C167      1.27564      .   S
    C149   C150      1.40870      .   S
    C144   C145      1.38979      .   S
    C144   C143      1.40897      .   S
    C145   C140      1.40839      .   S
    O212   C160      1.27332      .   S
    C156   C155      1.39096      .   S
    C156   C157      1.40833      .   S
    C155   C154      1.40158      .   S
    O208   C146      1.27433      .   S
    C80    H11       1.08623      .   S
    C80    C79       1.40136  1_565   S
    H44    C138      1.08855      .   S
    C153   C147      1.49907  1_455   S
    C153   O211      1.27210      .   S
    C78    C79       1.40199  1_455   S
    C78    H10       1.08794      .   S
    C147   C152      1.40362      .   S
    C167   C161      1.49834      .   S
    C167   O215      1.27445      .   S
    C161   C162      1.40260      .   S
    C137   C138      1.40292      .   S
    C137   C136      1.40340      .   S
    C150   C143      1.47880      .   S
    C150   C151      1.40915      .   S
    C164   C157      1.47740      .   S
    C164   C163      1.40923      .   S
    C157   C158      1.40872      .   S
    C143   C142      1.40928      .   S
    C154   C160      1.49849      .   S
    C154   C159      1.40058      .   S
    C160   O213      1.27521      .   S
    C140   C146      1.50048      .   S
    C140   C141      1.40200      .   S
    C146   O209      1.27493      .   S
    C79    C82       1.47266      .   S
    C138   C139      1.38982      .   S
    H43    C136      1.08664      .   S
    C136   C135      1.38790      .   S
    O211   Zn4       2.09237      .   S
    C158   C159      1.39027      .   S
    C158   H56       1.09019      .   S
    O215   Zn4       2.07725      .   S
    C152   C151      1.39042      .   S
    C152   H53       1.08948      .   S
    C159   H57       1.08829      .   S
    C151   H52       1.09035      .   S
    C162   C163      1.39059  1_545   S
    C162   H58       1.08846      .   S
    C163   H59       1.09061      .   S
    O213   Zn4       2.07231      .   S
    C142   C141      1.39158      .   S
    C142   H47       1.08960      .   S
    C141   H46       1.08060      .   S
    O209   Zn4       2.05095      .   S
    Zn4    N193      2.07605      .   S
    C139   H45       1.08869      .   S
    C139   N187      1.34787      .   S
    C82    N84       1.35522  1_545   S
    C82    N83       1.35380  1_655   S
    N84    N86       1.32408      .   S
    C135   N187      1.34981      .   S
    C135   H42       1.08973      .   S
    N83    N181      1.32493      .   S
    N187   Zn2       2.07342      .   S
    H66    C175      1.08948      .   S
    N193   C175      1.35020      .   S
    N193   C179      1.34818      .   S
    N86    C99       1.35439      .   S
    C175   C176      1.38832      .   S
    H21    C101      1.08979      .   S
    N181   C99       1.35469  1_445   S
    H22    C102      1.08976      .   S
    H35    C123      1.09086      .   S
    H69    C179      1.08875      .   S
    H34    C122      1.08900      .   S
    H28    C111      1.09032      .   S
    H29    C112      1.08955      .   S
    H33    C119      1.08854      .   S
    H32    C118      1.09035      .   S
    C99    C96       1.47172      .   S
    C179   C178      1.39002      .   S
    Zn2    O201      2.04287      .   S
    Zn2    O205      2.07326      .   S
    Zn2    O207      2.07141      .   S
    Zn2    O203      2.09083      .   S
    O201   C106      1.27488      .   S
    C101   C102      1.39133      .   S
    C101   C100      1.40246      .   S
    C102   C103      1.40891      .   S
    O205   C120      1.27294      .   S
    C123   C122      1.39023  1_545   S
    C123   C124      1.40846      .   S
    C122   C121      1.40309      .   S
    C111   C112      1.39090      .   S
    C111   C110      1.40946      .   S
    C112   C107      1.40274      .   S
    C119   C118      1.39084      .   S
    C119   C114      1.40074      .   S
    C118   C117      1.40823      .   S
    O207   C127      1.27431      .   S
    O203   C113      1.26632      .   S
    C176   H67       1.08690      .   S
    C176   C177      1.40345      .   S
    H18    C95       1.08738      .   S
    C178   C177      1.40343      .   S
    C178   H68       1.08818      .   S
    C96    C95       1.40176      .   S
    C96    C97       1.40188  1_665   S
    C106   C100      1.50011      .   S
    C106   O200      1.27356      .   S
    C120   C114      1.49812      .   S
    C120   O204      1.27513      .   S
    C100   C105      1.40168      .   S
    C114   C115      1.40146      .   S
    C117   C124      1.47677      .   S
    C117   C116      1.40781      .   S
    C103   C110      1.47862      .   S
    C103   C104      1.40890      .   S
    C124   C125      1.40752      .   S
    C110   C109      1.40816      .   S
    C177   C174      1.47334      .   S
    C107   C113      1.49806  1_455   S
    C107   C108      1.40102      .   S
    C121   C127      1.49854      .   S
    C121   C126      1.40129      .   S
    C113   O202      1.28436      .   S
    C127   O206      1.27643      .   S
    C95    C94       1.38989      .   S
    H19    C97       1.08634      .   S
    C97    C98       1.38555      .   S
    C115   C116      1.39062      .   S
    C115   H30       1.08924      .   S
    C116   H31       1.08989      .   S
    O200   Zn1       2.07769      .   S
    O204   Zn1       2.08909      .   S
    C105   C104      1.39109      .   S
    C105   H25       1.08944      .   S
    C104   H23       1.09000      .   S
    C109   C108      1.39030      .   S
    C109   H27       1.08964      .   S
    C108   H26       1.08752      .   S
    C125   C126      1.39143  1_545   S
    C125   H36       1.09029      .   S
    O206   Zn1       2.06975      .   S
    C126   H37       1.08874      .   S
    O202   Zn1       2.08486      .   S
    C174   N191      1.35254      .   S
    C174   N190      1.35469      .   S
    Zn1    N182      2.07134      .   S
    C94    H17       1.08939      .   S
    C94    N85       1.34880      .   S
    N191   N192      1.32765      .   S
    C98    N85       1.34941  1_445   S
    C98    H20       1.08928      .   S
    N190   N189      1.32369      .   S
    N85    Zn0       2.04999      .   S
    N192   C173      1.35449      .   S
    H38    C128      1.08972      .   S
    N182   C128      1.35118      .   S
    N182   C132      1.34956      .   S
    N189   C173      1.35415      .   S
    H13    C88       1.08946      .   S
    H7     C74       1.09030      .   S
    H14    C89       1.09030      .   S
    H8     C75       1.08945      .   S
    H41    C132      1.08949      .   S
    C173   C170      1.47261      .   S
    C128   C129      1.38670      .   S
    C132   C131      1.39035      .   S
    Zn0    O198      2.08304      .   S
    Zn0    O196      2.04307  1_655   S
    Zn0    O195      2.09848  1_665   S
    O198   C93       1.27949      .   S
    C88    C89       1.39321      .   S
    C88    C87       1.40284      .   S
    C89    C90       1.40888      .   S
    C74    C75       1.39179      .   S
    C74    C73       1.40867      .   S
    C129   H39       1.08790      .   S
    C93    C87       1.49991      .   S
    C90    C73       1.48000  1_565   S
    Zn1    Zn2       2.84360      .   S
    Zn3    Zn4       2.87807      .   S
