# CIF file generated by openbabel 2.4.90, see http://openbabel.sf.net
data_I
_chemical_name_common ''
_cell_length_a 15.375
_cell_length_b 15.377
_cell_length_c 17.986
_cell_angle_alpha 95.482
_cell_angle_beta 96.329
_cell_angle_gamma 94.366
_space_group_name_H-M_alt 'P 1'
_space_group_name_Hall 'P 1'
loop_
    _symmetry_equiv_pos_as_xyz
    x,y,z
loop_
    _atom_site_label
    _atom_site_type_symbol
    _atom_site_fract_x
    _atom_site_fract_y
    _atom_site_fract_z
    _atom_site_occupancy
    Zn0     Zn   0.98922   0.98871   0.92210   1.000
    Zn1     Zn   0.77746   0.67849   0.75320   1.000
    Zn2     Zn   0.75307   0.65904   0.59326   1.000
    Zn3     Zn   0.22911   0.31531   0.24715   1.000
    Zn4     Zn   0.25180   0.33730   0.40903   1.000
    Zn5     Zn   0.01084   0.01061   0.08136   1.000
    O6      O    0.00000   0.85957   0.93629   1.000
    O7      O    0.01056   0.87480   0.06318   1.000
loop_
    _geom_bond_atom_site_label_1
    _geom_bond_atom_site_label_2
    _geom_bond_distance
    _geom_bond_site_symmetry_2
    _ccdc_geom_bond_type
    O7     Zn5       2.08220  1_565   S
    Zn5    Zn0       2.83155  1_444   S
    Zn0    O6        2.04307  1_655   S
    Zn1    Zn2       2.84360      .   S
    Zn3    Zn4       2.87807      .   S
