# CIF file generated by openbabel 2.4.90, see http://openbabel.sf.net
data_I
_chemical_name_common ''
_cell_length_a 15.375
_cell_length_b 15.377
_cell_length_c 17.986
_cell_angle_alpha 95.482
_cell_angle_beta 96.329
_cell_angle_gamma 94.366
_space_group_name_H-M_alt 'P 1'
_space_group_name_Hall 'P 1'
loop_
    _symmetry_equiv_pos_as_xyz
    x,y,z
loop_
    _atom_site_label
    _atom_site_type_symbol
    _atom_site_fract_x
    _atom_site_fract_y
    _atom_site_fract_z
    _atom_site_occupancy
    N0      N    0.99852   0.00128   0.50194   1.000
    N1      N    0.73991   0.33444   0.32918   1.000
    N2      N    0.23324   0.82632   0.32908   1.000
    N3      N    0.21255   0.33492   0.82540   1.000
    N4      N    0.26550   0.66208   0.67167   1.000
    N5      N    0.49961   0.99342   0.99820   1.000
    N6      N    0.78714   0.66174   0.17517   1.000
    N7      N    0.76890   0.16887   0.67190   1.000
    Zr8     Zr   0.24046   0.32631   0.32809   1.000
    O9      O    0.23470   0.33160   0.48689   1.000
    O10     O    0.23054   0.32582   0.16771   1.000
    Zr11    Zr   0.76526   0.66877   0.67323   1.000
    O12     O    0.76886   0.66435   0.51444   1.000
    O13     O    0.77406   0.66922   0.83311   1.000
    Zr14    Zr   0.00266   0.93342   0.00073   1.000
    O15     O    0.99900   0.96394   0.84219   1.000
    O16     O    0.00275   0.97016   0.16041   1.000
    O17     O    0.14311   0.96731   0.00140   1.000
    O18     O    0.85933   0.96271   0.99893   1.000
    O19     O    0.90725   0.66803   0.67372   1.000
    O20     O    0.62359   0.66588   0.67170   1.000
    O21     O    0.76611   0.52703   0.67204   1.000
    O22     O    0.76662   0.81054   0.67369   1.000
    O23     O    0.09832   0.32773   0.32714   1.000
    O24     O    0.38202   0.32941   0.32968   1.000
    O25     O    0.23891   0.46811   0.32895   1.000
    O26     O    0.23777   0.18462   0.32788   1.000
loop_
    _geom_bond_atom_site_label_1
    _geom_bond_atom_site_label_2
    _geom_bond_distance
    _geom_bond_site_symmetry_2
    _ccdc_geom_bond_type
    Zr8    O9        2.86086      .   S
    N3     O9        6.13099      .   S
    Zr8    O10       2.87103      .   S
    N3     O10       6.14790  1_556   S
    Zr11   O12       2.85699      .   S
    N6     O12       6.13589      .   S
    Zr11   O13       2.86314      .   S
    N6     O13       6.14585  1_554   S
    Zr14   O15       2.92897  1_454   S
    N0     O15       6.20034  1_545   S
    Zr14   O16       2.87343      .   S
    N0     O16       6.12341  1_645   S
    N5     O17       5.47242  1_556   S
    Zr14   O17       2.18103      .   S
    N5     O18       5.58513      .   S
    Zr14   O18       2.27992  1_454   S
    Zr11   O19       2.18308      .   S
    N4     O19       5.51989  1_455   S
    Zr11   O20       2.17232      .   S
    N4     O20       5.50144      .   S
    Zr11   O21       2.17860      .   S
    N7     O21       5.51056      .   S
    Zr11   O22       2.17785      .   S
    N7     O22       5.51065  1_545   S
    Zr8    O23       2.18527      .   S
    N1     O23       5.52354  1_655   S
    Zr8    O24       2.17031      .   S
    N1     O24       5.49828      .   S
    Zr8    O25       2.18110      .   S
    N2     O25       5.51529      .   S
    Zr8    O26       2.17561      .   S
    N2     O26       5.50680  1_565   S
