# CIF file generated by openbabel 2.4.90, see http://openbabel.sf.net
data_I
_chemical_name_common ''
_cell_length_a 15.375
_cell_length_b 15.377
_cell_length_c 17.986
_cell_angle_alpha 95.482
_cell_angle_beta 96.329
_cell_angle_gamma 94.366
_space_group_name_H-M_alt 'P 1'
_space_group_name_Hall 'P 1'
loop_
    _symmetry_equiv_pos_as_xyz
    x,y,z
loop_
    _atom_site_label
    _atom_site_type_symbol
    _atom_site_fract_x
    _atom_site_fract_y
    _atom_site_fract_z
    _atom_site_occupancy
    N0      N    0.99852   0.00128   0.50194   1.000
    N1      N    0.73991   0.33444   0.32918   1.000
    N2      N    0.23324   0.82632   0.32908   1.000
    N3      N    0.21255   0.33492   0.82540   1.000
    N4      N    0.99749   0.45315   0.00340   1.000
    N5      N    0.26550   0.66208   0.67167   1.000
    N6      N    0.49961   0.99342   0.99820   1.000
    N7      N    0.78714   0.66174   0.17517   1.000
    N8      N    0.76890   0.16887   0.67190   1.000
    Zr9     Zr   0.24046   0.32631   0.32809   1.000
    O10     O    0.10111   0.33042   0.34524   1.000
    O11     O    0.38472   0.33149   0.34779   1.000
    O12     O    0.24013   0.18708   0.34598   1.000
    O13     O    0.24244   0.47067   0.34702   1.000
    O14     O    0.23470   0.33160   0.48689   1.000
    O15     O    0.37931   0.32733   0.31158   1.000
    O16     O    0.09554   0.32503   0.30905   1.000
    O17     O    0.23541   0.18216   0.30978   1.000
    O18     O    0.23537   0.46556   0.31089   1.000
    O19     O    0.23054   0.32582   0.16771   1.000
    Zr20    Zr   0.76526   0.66877   0.67323   1.000
    O21     O    0.76206   0.52467   0.65415   1.000
    O22     O    0.76444   0.80827   0.65572   1.000
    O23     O    0.90435   0.66522   0.65576   1.000
    O24     O    0.62079   0.66424   0.65374   1.000
    O25     O    0.76886   0.66435   0.51444   1.000
    O26     O    0.62640   0.66752   0.68967   1.000
    O27     O    0.76880   0.81282   0.69166   1.000
    O28     O    0.91016   0.67085   0.69168   1.000
    O29     O    0.77406   0.66922   0.83311   1.000
    O30     O    0.77015   0.52938   0.68993   1.000
    Zr31    Zr   0.00266   0.93342   0.00073   1.000
    O32     O    0.85678   0.95902   0.98110   1.000
    O33     O    0.99558   0.09386   0.98432   1.000
    O34     O    0.14050   0.96638   0.98357   1.000
    O35     O    0.99900   0.96394   0.84219   1.000
    O36     O    0.86188   0.96639   0.01677   1.000
    O37     O    0.14572   0.96824   0.01922   1.000
    O38     O    0.00347   0.09897   0.01997   1.000
    O39     O    0.00275   0.97016   0.16041   1.000
    Zr40    Zr   0.01117   0.82966   0.60000   1.000
loop_
    _geom_bond_atom_site_label_1
    _geom_bond_atom_site_label_2
    _geom_bond_distance
    _geom_bond_site_symmetry_2
    _ccdc_geom_bond_type
    Zr9    O10       2.20266      .   S
    N1     O10       5.53450  1_655   S
    Zr9    O11       2.20141      .   S
    N1     O11       5.50495      .   S
    Zr9    O12       2.19488      .   S
    N2     O12       5.51886  1_565   S
    Zr9    O13       2.21076      .   S
    N2     O13       5.52069      .   S
    Zr9    O14       2.86086      .   S
    N3     O14       6.13099      .   S
    Zr9    O15       2.18667      .   S
    N1     O15       5.51042      .   S
    Zr9    O16       2.21499      .   S
    N1     O16       5.53131  1_655   S
    Zr9    O17       2.20368      .   S
    N2     O17       5.51353  1_565   S
    Zr9    O18       2.19856      .   S
    N2     O18       5.52861      .   S
    Zr9    O19       2.87103      .   S
    N3     O19       6.14790  1_556   S
    Zr20   O21       2.20544      .   S
    N8     O21       5.51908      .   S
    Zr20   O22       2.19851      .   S
    N8     O22       5.51955  1_545   S
    Zr20   O23       2.19947      .   S
    N5     O23       5.53258  1_455   S
    Zr20   O24       2.20499      .   S
    N5     O24       5.50520      .   S
    Zr20   O25       2.85699      .   S
    N7     O25       6.13589      .   S
    Zr20   O26       2.18638      .   S
    N5     O26       5.51622      .   S
    Zr20   O27       2.20380      .   S
    N8     O27       5.52025  1_545   S
    Zr20   O28       2.21319      .   S
    N5     O28       5.52568  1_455   S
    Zr20   O29       2.86314      .   S
    N7     O29       6.14585  1_554   S
    Zr20   O30       2.19821      .   S
    N8     O30       5.52048      .   S
    Zr31   O32       2.30134  1_454   S
    N6     O32       5.59589      .   S
    Zr31   O33       2.52150  1_464   S
    N4     O33       5.50031  1_554   S
    Zr31   O34       2.20333  1_554   S
    N6     O34       5.48056      .   S
    Zr31   O35       2.92897  1_454   S
    N0     O35       6.20034  1_545   S
    Zr31   O36       2.30260  1_455   S
    N6     O36       5.59245  1_556   S
    Zr31   O37       2.20473      .   S
    N6     O37       5.48270  1_556   S
    Zr31   O38       2.53503  1_565   S
    N4     O38       5.48982  1_655   S
    Zr31   O39       2.87343      .   S
    N0     O39       6.12341  1_645   S
