# CIF file generated by openbabel 2.4.90, see http://openbabel.sf.net
data_I
_chemical_name_common ''
_cell_length_a 15.375
_cell_length_b 15.377
_cell_length_c 17.986
_cell_angle_alpha 95.482
_cell_angle_beta 96.329
_cell_angle_gamma 94.366
_space_group_name_H-M_alt 'P 1'
_space_group_name_Hall 'P 1'
loop_
    _symmetry_equiv_pos_as_xyz
    x,y,z
loop_
    _atom_site_label
    _atom_site_type_symbol
    _atom_site_fract_x
    _atom_site_fract_y
    _atom_site_fract_z
    _atom_site_occupancy
    Zr0     Zr   0.01084   0.01061   0.08136   1.000
    Zr1     Zr   0.98922   0.98871   0.92210   1.000
    Zr2     Zr   0.77746   0.67849   0.75320   1.000
    Zr3     Zr   0.75307   0.65904   0.59326   1.000
    Zr4     Zr   0.22911   0.31531   0.24715   1.000
    Zr5     Zr   0.25180   0.33730   0.40903   1.000
    Zr6     Zr   0.01117   0.82966   0.60000   1.000
    Zr7     Zr   0.00000   0.85957   0.93629   1.000
    Zr8     Zr   0.01056   0.87480   0.06318   1.000
    O9      O    0.01070   0.94270   0.07227   1.000
    O10     O    0.00003   0.99966   0.00173   1.000
    O11     O    0.99461   0.92414   0.92920   1.000
    O12     O    0.76526   0.66877   0.67323   1.000
    O13     O    0.24046   0.32631   0.32809   1.000
    N14     N    0.99852   0.00128   0.50194   1.000
    O15     O    0.99534   0.99446   0.68365   1.000
    O16     O    0.00285   0.00690   0.32010   1.000
    N17     N    0.73991   0.33444   0.32918   1.000
    O18     O    0.51816   0.32835   0.29507   1.000
    O19     O    0.52899   0.33667   0.36748   1.000
    O20     O    0.95062   0.32376   0.29001   1.000
    O21     O    0.96177   0.33454   0.36239   1.000
    N22     N    0.23324   0.82632   0.32908   1.000
    O23     O    0.23029   0.60481   0.29369   1.000
    O24     O    0.24442   0.61503   0.36594   1.000
    O25     O    0.23037   0.03802   0.29147   1.000
    O26     O    0.23980   0.04785   0.36388   1.000
    N27     N    0.21255   0.33492   0.82540   1.000
    O28     O    0.22062   0.32533   0.00733   1.000
    O29     O    0.22893   0.33689   0.64569   1.000
    N30     N    0.99749   0.45315   0.00340   1.000
    O31     O    0.00429   0.26453   0.03920   1.000
    O32     O    0.98850   0.25429   0.96791   1.000
    N33     N    0.26550   0.66208   0.67167   1.000
    O34     O    0.48753   0.66628   0.70611   1.000
    O35     O    0.47631   0.65972   0.63425   1.000
    O36     O    0.05505   0.67293   0.71013   1.000
    O37     O    0.04344   0.66167   0.63828   1.000
    N38     N    0.49961   0.99342   0.99820   1.000
    O39     O    0.28878   0.00306   0.03772   1.000
    O40     O    0.27835   0.99934   0.96640   1.000
    O41     O    0.71091   0.98462   0.96147   1.000
    O42     O    0.72110   0.99936   0.03280   1.000
    N43     N    0.78714   0.66174   0.17517   1.000
    O44     O    0.78285   0.66967   0.99299   1.000
    O45     O    0.77246   0.65993   0.35566   1.000
    N46     N    0.76890   0.16887   0.67190   1.000
    O47     O    0.77503   0.39000   0.70663   1.000
    O48     O    0.75887   0.38058   0.63508   1.000
    O49     O    0.77234   0.95687   0.71008   1.000
    O50     O    0.76363   0.94778   0.63821   1.000
loop_
    _geom_bond_atom_site_label_1
    _geom_bond_atom_site_label_2
    _geom_bond_distance
    _geom_bond_site_symmetry_2
    _ccdc_geom_bond_type
    Zr8    O9        1.04110      .   S
    Zr0    O9        1.04110  1_545   S
    Zr0    O10       1.41578  1_545   S
    Zr1    O10       1.41578  1_656   S
    Zr1    O11       1.02153      .   S
    Zr7    O11       1.02153  1_455   S
    Zr2    O12       1.42180      .   S
    Zr3    O12       1.42180      .   S
    Zr4    O13       1.43904      .   S
    Zr5    O13       1.43904      .   S
    N14    O15       3.28562  1_545   S
    Zr1    O15       4.30930      .   S
    N14    O16       3.28782  1_655   S
    Zr0    O16       4.31484      .   S
    N17    O18       3.38945      .   S
    Zr4    O18       4.41814      .   S
    N17    O19       3.39075      .   S
    Zr5    O19       4.40771      .   S
    N17    O20       3.40301      .   S
    Zr4    O20       4.44286  1_455   S
    N17    O21       3.39737      .   S
    Zr5    O21       4.44188  1_455   S
    N22    O23       3.40071      .   S
    Zr4    O23       4.44867      .   S
    N22    O24       3.39077      .   S
    Zr5    O24       4.42020      .   S
    N22    O25       3.38997  1_565   S
    Zr4    O25       4.41316      .   S
    N22    O26       3.39588  1_565   S
    Zr5    O26       4.43344      .   S
    N27    O28       3.27867  1_556   S
    Zr4    O28       4.31878      .   S
    N27    O29       3.27258      .   S
    Zr5    O29       4.31001      .   S
    N30    O31       3.03748  1_655   S
    Zr0    O31       4.05458      .   S
    N30    O32       3.05290  1_554   S
    Zr1    O32       4.08928  1_565   S
    N33    O34       3.39617      .   S
    Zr2    O34       4.43081      .   S
    N33    O35       3.38443      .   S
    Zr3    O35       4.39844      .   S
    N33    O36       3.39551      .   S
    Zr2    O36       4.42668  1_655   S
    N33    O37       3.40016      .   S
    Zr3    O37       4.44504  1_655   S
    N38    O39       3.40530  1_566   S
    Zr0    O39       4.43715      .   S
    N38    O40       3.39659      .   S
    Zr1    O40       4.41657  1_655   S
    N38    O41       3.39579      .   S
    Zr1    O41       4.41037      .   S
    N38    O42       3.38616  1_556   S
    Zr0    O42       4.43108  1_445   S
    N43    O44       3.28431  1_554   S
    Zr2    O44       4.31975      .   S
    N43    O45       3.28131      .   S
    Zr3    O45       4.31783      .   S
    N46    O47       3.39020      .   S
    Zr2    O47       4.43173      .   S
    N46    O48       3.39502      .   S
    Zr3    O48       4.42343      .   S
    N46    O49       3.39824  1_545   S
    Zr2    O49       4.42755      .   S
    N46    O50       3.38909  1_545   S
    Zr3    O50       4.42358      .   S
