# CIF file generated by openbabel 2.4.90, see http://openbabel.sf.net
data_I
_chemical_name_common ''
_cell_length_a 10.9615
_cell_length_b 12.758
_cell_length_c 20.066
_cell_angle_alpha 90.035
_cell_angle_beta 90.047
_cell_angle_gamma 90.126
_space_group_name_H-M_alt 'P 1'
_space_group_name_Hall 'P 1'
loop_
    _symmetry_equiv_pos_as_xyz
    x,y,z
loop_
    _atom_site_label
    _atom_site_type_symbol
    _atom_site_fract_x
    _atom_site_fract_y
    _atom_site_fract_z
    _atom_site_occupancy
    Ag0     Ag   0.85401   0.32885   0.96500   1.000
    Ag1     Ag   0.64528   0.17112   0.96504   1.000
    Ag2     Ag   0.35398   0.17133   0.53490   1.000
    Ag3     Ag   0.24953   0.75019   0.67512   1.000
    Ag4     Ag   0.74947   0.74989   0.82512   1.000
    Ag5     Ag   0.00038   0.18793   0.24979   1.000
    Ag6     Ag   0.50040   0.31194   0.25005   1.000
    Ag7     Ag   0.85433   0.67135   0.46489   1.000
    Ag8     Ag   0.14587   0.67122   0.03492   1.000
    Ag9     Ag   0.35454   0.82898   0.03498   1.000
    Ag10    Ag   0.64579   0.82861   0.46511   1.000
    Ag11    Ag   0.75018   0.24975   0.32488   1.000
    Ag12    Ag   0.25027   0.25019   0.17485   1.000
    Ag13    Ag   0.99961   0.81210   0.75014   1.000
    Ag14    Ag   0.49940   0.68810   0.74998   1.000
    Ag15    Ag   0.14545   0.32861   0.53507   1.000
    Ts16    Ts   0.83938   0.36432   0.93969   1.000
    Ts17    Ts   0.87292   0.29681   0.99136   1.000
    Ts18    Ts   0.65975   0.13561   0.93972   1.000
    Ts19    Ts   0.62658   0.20317   0.99146   1.000
    Ts20    Ts   0.33937   0.13585   0.56023   1.000
    Ts21    Ts   0.37289   0.20337   0.50851   1.000
    Ts22    Ts   0.24126   0.69574   0.67135   1.000
    Ts23    Ts   0.25778   0.80462   0.67129   1.000
    Ts24    Ts   0.75763   0.69548   0.82891   1.000
    Ts25    Ts   0.74130   0.80430   0.82892   1.000
    Ts26    Ts   0.01579   0.18619   0.28367   1.000
    Ts27    Ts   0.98493   0.18624   0.21592   1.000
    Ts28    Ts   0.51582   0.31369   0.21618   1.000
    Ts29    Ts   0.48494   0.31369   0.28391   1.000
    Ts30    Ts   0.83982   0.63581   0.43954   1.000
    Ts31    Ts   0.87310   0.70338   0.49136   1.000
    Ts32    Ts   0.16053   0.63576   0.06023   1.000
    Ts33    Ts   0.12695   0.70327   0.00857   1.000
    Ts34    Ts   0.34006   0.86448   0.06030   1.000
    Ts35    Ts   0.37324   0.79694   0.00856   1.000
    Ts36    Ts   0.66038   0.86410   0.43979   1.000
    Ts37    Ts   0.62689   0.79658   0.49151   1.000
    Ts38    Ts   0.75841   0.30420   0.32866   1.000
    Ts39    Ts   0.74194   0.19532   0.32871   1.000
    Ts40    Ts   0.24212   0.30460   0.17105   1.000
    Ts41    Ts   0.25844   0.19577   0.17107   1.000
    Ts42    Ts   0.98419   0.81381   0.71626   1.000
    Ts43    Ts   0.01506   0.81383   0.78401   1.000
    Ts44    Ts   0.48398   0.68637   0.78384   1.000
    Ts45    Ts   0.51489   0.68633   0.71612   1.000
    Ts46    Ts   0.15990   0.36415   0.56043   1.000
    Ts47    Ts   0.12673   0.29657   0.50860   1.000
loop_
    _geom_bond_atom_site_label_1
    _geom_bond_atom_site_label_2
    _geom_bond_distance
    _geom_bond_site_symmetry_2
    _ccdc_geom_bond_type
    Ag8    Ag9       3.04337      .   S
    Ag12   Ag5       3.22399      .   S
    Ag12   Ag6       3.22447      .   S
    Ag5    Ag11      3.22936  1_455   S
    Ag6    Ag11      3.22261      .   S
    Ag7    Ag10      3.04483      .   S
    Ag2    Ag15      3.04489      .   S
    Ag3    Ag14      3.22335      .   S
    Ag3    Ag13      3.22634  1_455   S
    Ag14   Ag4       3.22358      .   S
    Ag13   Ag4       3.22654      .   S
    Ag0    Ag1       3.04372      .   S
    Ag0    Ts16      0.69915      .   S
    Ag0    Ts17      0.70025      .   S
    Ag1    Ts18      0.69917      .   S
    Ag1    Ts19      0.70026      .   S
    Ag2    Ts20      0.69921      .   S
    Ag2    Ts21      0.70041      .   S
    Ag3    Ts22      0.70435      .   S
    Ag3    Ts23      0.70434      .   S
    Ag4    Ts24      0.70426      .   S
    Ag4    Ts25      0.70424      .   S
    Ag5    Ts26      0.70073      .   S
    Ag5    Ts27      0.70075  1_455   S
    Ag6    Ts28      0.70078      .   S
    Ag6    Ts29      0.70079      .   S
    Ag7    Ts30      0.69921      .   S
    Ag7    Ts31      0.70039      .   S
    Ag8    Ts32      0.69915      .   S
    Ag8    Ts33      0.70025      .   S
    Ag9    Ts34      0.69912      .   S
    Ag9    Ts35      0.70022      .   S
    Ag10   Ts36      0.69921      .   S
    Ag10   Ts37      0.70041      .   S
    Ag11   Ts38      0.70433      .   S
    Ag11   Ts39      0.70432      .   S
    Ag12   Ts40      0.70426      .   S
    Ag12   Ts41      0.70426      .   S
    Ag13   Ts42      0.70068      .   S
    Ag13   Ts43      0.70071  1_655   S
    Ag14   Ts44      0.70076      .   S
    Ag14   Ts45      0.70077      .   S
    Ag15   Ts46      0.69919      .   S
    Ag15   Ts47      0.70037      .   S
