# CIF file generated by openbabel 2.4.90, see http://openbabel.sf.net
data_I
_chemical_name_common ''
_cell_length_a 10.9615
_cell_length_b 12.758
_cell_length_c 20.066
_cell_angle_alpha 90.035
_cell_angle_beta 90.047
_cell_angle_gamma 90.126
_space_group_name_H-M_alt 'P 1'
_space_group_name_Hall 'P 1'
loop_
    _symmetry_equiv_pos_as_xyz
    x,y,z
loop_
    _atom_site_label
    _atom_site_type_symbol
    _atom_site_fract_x
    _atom_site_fract_y
    _atom_site_fract_z
    _atom_site_occupancy
    N0      N    0.92530   0.76569   0.60215   1.000
    N1      N    0.70808   0.02471   0.37878   1.000
    N2      N    0.57465   0.26560   0.10216   1.000
    N3      N    0.29224   0.02505   0.12133   1.000
    N4      N    0.92579   0.23441   0.10194   1.000
    N5      N    0.57412   0.73431   0.60213   1.000
    N6      N    0.07468   0.23425   0.39778   1.000
    N7      N    0.20743   0.52489   0.62144   1.000
    N8      N    0.42573   0.26565   0.39790   1.000
    N9      N    0.70750   0.97501   0.87883   1.000
    N10     N    0.20837   0.47521   0.12125   1.000
    N11     N    0.29162   0.97525   0.62123   1.000
    N12     N    0.07418   0.76569   0.89799   1.000
    N13     N    0.79148   0.52485   0.87883   1.000
    N14     N    0.79220   0.47506   0.37856   1.000
    N15     N    0.42519   0.73451   0.89786   1.000
    Zr16    Zr   0.62531   0.24995   0.24989   1.000
    O17     O    0.53839   0.27003   0.29963   1.000
    O18     O    0.58720   0.27002   0.20030   1.000
    O19     O    0.42426   0.32673   0.19755   1.000
    O20     O    0.45135   0.17338   0.19757   1.000
    O21     O    0.78840   0.22993   0.20018   1.000
    O22     O    0.83720   0.22987   0.29955   1.000
    O23     O    0.67413   0.17318   0.30230   1.000
    O24     O    0.70134   0.32660   0.30222   1.000
    Zr25    Zr   0.87450   0.75007   0.75009   1.000
    O26     O    0.79843   0.82666   0.80245   1.000
    O27     O    0.82555   0.67331   0.80245   1.000
    O28     O    0.07564   0.82680   0.69770   1.000
    O29     O    0.04839   0.67339   0.69777   1.000
    O30     O    0.96149   0.77013   0.79978   1.000
    O31     O    0.91270   0.77012   0.70041   1.000
    O32     O    0.71144   0.72997   0.70037   1.000
    O33     O    0.66262   0.73004   0.79971   1.000
    Zr34    Zr   0.24971   0.24997   0.53499   1.000
    O35     O    0.21849   0.35169   0.56613   1.000
    O36     O    0.17287   0.25369   0.49078   1.000
    O37     O    0.28078   0.14833   0.56602   1.000
    O38     O    0.32688   0.24624   0.49080   1.000
    Zr39    Zr   0.74964   0.24999   0.96502   1.000
    O40     O    0.71844   0.14821   0.93398   1.000
    O41     O    0.67279   0.24619   0.00922   1.000
    O42     O    0.78071   0.35172   0.93398   1.000
    O43     O    0.82686   0.25379   0.00913   1.000
    Zr44    Zr   0.75006   0.74998   0.46500   1.000
    O45     O    0.82698   0.74626   0.50919   1.000
    O46     O    0.78122   0.64827   0.43386   1.000
    O47     O    0.71897   0.85163   0.43398   1.000
    O48     O    0.67292   0.75371   0.50921   1.000
    Zr49    Zr   0.25021   0.75010   0.03495   1.000
    O50     O    0.21916   0.64836   0.06601   1.000
    O51     O    0.17302   0.74630   0.99082   1.000
    O52     O    0.28137   0.85187   0.06605   1.000
    O53     O    0.32705   0.75391   0.99078   1.000
loop_
    _geom_bond_atom_site_label_1
    _geom_bond_atom_site_label_2
    _geom_bond_distance
    _geom_bond_site_symmetry_2
    _ccdc_geom_bond_type
    Zr16   O17       1.40420      .   S
    N8     O17       2.32812      .   S
    Zr16   O18       1.10929      .   S
    N2     O18       1.97473      .   S
    Zr16   O19       2.63183      .   S
    N10    O19       3.39855      .   S
    Zr16   O20       2.38329      .   S
    N3     O20       2.99010      .   S
    Zr16   O21       2.06426      .   S
    N4     O21       2.48227      .   S
    Zr16   O22       2.54008      .   S
    N6     O22       3.26433  1_455   S
    Zr16   O23       1.53433      .   S
    N1     O23       2.46727      .   S
    Zr16   O24       1.65740      .   S
    N14    O24       2.62902      .   S
    Zr25   O26       1.66076      .   S
    N9     O26       2.63269      .   S
    Zr25   O27       1.53319      .   S
    N13    O27       2.46514      .   S
    Zr25   O28       2.63059  1_655   S
    N11    O28       3.39649      .   S
    Zr25   O29       2.38801  1_655   S
    N7     O29       2.99826      .   S
    Zr25   O30       1.40212      .   S
    N12    O30       2.32568  1_455   S
    Zr25   O31       1.11125      .   S
    N0     O31       1.97747      .   S
    Zr25   O32       2.06170      .   S
    N5     O32       2.48005      .   S
    Zr25   O33       2.54017      .   S
    N15    O33       3.26570      .   S
    Zr34   O35       1.48085      .   S
    N7     O35       2.47542      .   S
    Zr34   O36       1.22377      .   S
    N6     O36       2.16730      .   S
    Zr34   O37       1.47923      .   S
    N11    O37       2.47407  1_565   S
    Zr34   O38       1.22692      .   S
    N8     O38       2.17094      .   S
    Zr39   O40       1.47909      .   S
    N9     O40       2.47339  1_565   S
    Zr39   O41       1.22454  1_556   S
    N2     O41       2.16813      .   S
    Zr39   O42       1.47919      .   S
    N13    O42       2.47379      .   S
    Zr39   O43       1.22505  1_556   S
    N4     O43       2.16872      .   S
    Zr44   O45       1.22397      .   S
    N0     O45       2.16748      .   S
    Zr44   O46       1.48070      .   S
    N14    O46       2.47527      .   S
    Zr44   O47       1.47920      .   S
    N1     O47       2.47407  1_545   S
    Zr44   O48       1.22699      .   S
    N5     O48       2.17100      .   S
    Zr49   O50       1.47932      .   S
    N10    O50       2.47475      .   S
    Zr49   O51       1.22513  1_554   S
    N12    O51       2.16872      .   S
    Zr49   O52       1.47941      .   S
    N3     O52       2.47431  1_545   S
    Zr49   O53       1.22413  1_554   S
    N15    O53       2.16765      .   S
