# CIF file generated by openbabel 2.4.90, see http://openbabel.sf.net
data_I
_chemical_name_common ''
_cell_length_a 15.583
_cell_length_b 15.627
_cell_length_c 15.672
_cell_angle_alpha 68.747
_cell_angle_beta 74.069
_cell_angle_gamma 111.034
_space_group_name_H-M_alt 'P 1'
_space_group_name_Hall 'P 1'
loop_
    _symmetry_equiv_pos_as_xyz
    x,y,z
loop_
    _atom_site_label
    _atom_site_type_symbol
    _atom_site_fract_x
    _atom_site_fract_y
    _atom_site_fract_z
    _atom_site_occupancy
    Cu0     Cu   0.24391   0.93637   0.06383   1.000
    Cu1     Cu   0.58928   0.69135   0.24811   1.000
    Cu2     Cu   0.50132   0.56561   0.69039   1.000
    Cu3     Cu   0.25164   0.16488   0.93712   1.000
    Cu4     Cu   0.80913   0.81139   0.25640   1.000
    Cu5     Cu   0.39644   0.33690   0.90998   1.000
    Cu6     Cu   0.43644   0.69292   0.99779   1.000
    Cu7     Cu   0.43817   0.19130   0.89744   1.000
    Cu8     Cu   0.75611   0.06366   0.93610   1.000
    Cu9     Cu   0.41074   0.30867   0.75189   1.000
    Cu10    Cu   0.49869   0.43441   0.30960   1.000
    Cu11    Cu   0.74837   0.83514   0.06287   1.000
    Cu12    Cu   0.19088   0.18864   0.74356   1.000
    Cu13    Cu   0.60355   0.66313   0.09002   1.000
    Cu14    Cu   0.56357   0.30711   0.00000   1.000
    Cu15    Cu   0.56184   0.80873   0.10256   1.000
    I16     I    0.41316   0.58052   0.25087   1.000
    I17     I    0.67002   0.92013   0.16730   1.000
    I18     I    0.33281   0.16513   0.08590   1.000
    I19     I    0.24872   0.33781   0.82889   1.000
    I20     I    0.58685   0.41951   0.74914   1.000
    I21     I    0.32999   0.07990   0.83270   1.000
    I22     I    0.66720   0.83490   0.91410   1.000
    I23     I    0.75130   0.66222   0.17111   1.000
loop_
    _geom_bond_atom_site_label_1
    _geom_bond_atom_site_label_2
    _geom_bond_distance
    _geom_bond_site_symmetry_2
    _ccdc_geom_bond_type
    Cu11   Cu13      2.60549      .   S
    Cu11   Cu15      2.63938      .   S
    Cu11   I23       2.64377      .   S
    Cu11   Cu1       2.63515      .   S
    I18    Cu5       2.64816  1_554   S
    Cu13   Cu15      2.63705      .   S
    Cu13   Cu1       2.63489      .   S
    Cu13   I22       2.64814  1_554   S
    Cu15   I17       2.64859      .   S
    Cu15   Cu1       2.61067      .   S
    Cu1    I16       2.64617      .   S
    I20    Cu9       2.64617      .   S
    Cu9    Cu7       2.61062      .   S
    Cu9    Cu5       2.63483      .   S
    Cu9    Cu3       2.63511      .   S
    I19    Cu3       2.64376      .   S
    I21    Cu7       2.64848      .   S
    Cu7    Cu5       2.63712      .   S
    Cu7    Cu3       2.63938      .   S
    Cu5    Cu3       2.60547      .   S
