# CIF file generated by openbabel 2.4.90, see http://openbabel.sf.net
data_I
_chemical_name_common ''
_cell_length_a 15.583
_cell_length_b 15.627
_cell_length_c 15.672
_cell_angle_alpha 68.747
_cell_angle_beta 74.069
_cell_angle_gamma 111.034
_space_group_name_H-M_alt 'P 1'
_space_group_name_Hall 'P 1'
loop_
    _symmetry_equiv_pos_as_xyz
    x,y,z
loop_
    _atom_site_label
    _atom_site_type_symbol
    _atom_site_fract_x
    _atom_site_fract_y
    _atom_site_fract_z
    _atom_site_occupancy
    N0      N    0.58095   0.65094   0.49484   1.000
    N1      N    0.35502   0.85050   0.06934   1.000
    N2      N    0.00518   0.92772   0.14455   1.000
    N3      N    0.43053   0.57641   0.91822   1.000
    N4      N    0.64499   0.14953   0.92698   1.000
    N5      N    0.41906   0.34909   0.50516   1.000
    N6      N    0.99483   0.07231   0.85537   1.000
    N7      N    0.56948   0.42362   0.08065   1.000
    Zr8     Zr   0.24391   0.93637   0.06383   1.000
    O9      O    0.28226   0.90704   0.06584   1.000
    O10     O    0.16872   0.93491   0.08851   1.000
    Zr11    Zr   0.62559   0.74951   0.12587   1.000
    O12     O    0.60490   0.70791   0.26552   1.000
    O13     O    0.76545   0.86796   0.02806   1.000
    O14     O    0.60384   0.62994   0.10515   1.000
    O15     O    0.52761   0.79216   0.10375   1.000
    Zr16    Zr   0.50132   0.56561   0.69039   1.000
    O17     O    0.47846   0.56775   0.76340   1.000
    O18     O    0.52839   0.59475   0.62319   1.000
    Zr19    Zr   0.37442   0.25051   0.87413   1.000
    O20     O    0.23456   0.13206   0.97192   1.000
    O21     O    0.39616   0.37009   0.89456   1.000
    O22     O    0.47239   0.20786   0.89533   1.000
    O23     O    0.39510   0.29212   0.73448   1.000
    Zr24    Zr   0.80913   0.81139   0.25640   1.000
    O25     O    0.73604   0.76006   0.33151   1.000
    O26     O    0.87648   0.85168   0.21779   1.000
    Zr27    Zr   0.43644   0.69292   0.99779   1.000
    O28     O    0.43429   0.65259   0.97074   1.000
    O29     O    0.41151   0.74324   0.02090   1.000
    Zr30    Zr   0.75611   0.06366   0.93610   1.000
    O31     O    0.83129   0.06512   0.91143   1.000
    O32     O    0.71775   0.09299   0.93319   1.000
    Zr33    Zr   0.49869   0.43441   0.30960   1.000
    O34     O    0.52155   0.43228   0.23632   1.000
    O35     O    0.47162   0.40528   0.37680   1.000
    Zr36    Zr   0.19088   0.18864   0.74356   1.000
    O37     O    0.12353   0.14835   0.78217   1.000
    O38     O    0.26397   0.23996   0.66846   1.000
    Zr39    Zr   0.56357   0.30711   0.00000   1.000
    O40     O    0.58850   0.25679   0.97680   1.000
    O41     O    0.56572   0.34744   0.02759   1.000
loop_
    _geom_bond_atom_site_label_1
    _geom_bond_atom_site_label_2
    _geom_bond_distance
    _geom_bond_site_symmetry_2
    _ccdc_geom_bond_type
    Zr8    O9        0.87456      .   S
    N1     O9        1.66945      .   S
    Zr8    O10       1.11732      .   S
    N2     O10       2.40266      .   S
    Zr11   O12       1.93588      .   S
    N0     O12       3.24854      .   S
    Zr11   O13       1.93364      .   S
    N6     O13       3.24481  1_546   S
    Zr11   O14       1.93838      .   S
    N7     O14       3.25588      .   S
    Zr11   O15       1.93620      .   S
    N1     O15       3.24893      .   S
    Zr16   O17       1.11784      .   S
    N3     O17       2.40407      .   S
    Zr16   O18       0.87463      .   S
    N0     O18       1.66941      .   S
    Zr19   O20       1.93359      .   S
    N2     O20       3.24461  1_564   S
    Zr19   O21       1.93589      .   S
    N3     O21       3.24899      .   S
    Zr19   O22       1.93233      .   S
    N4     O22       3.23663      .   S
    Zr19   O23       1.93587      .   S
    N5     O23       3.24853      .   S
    Zr24   O25       1.11802      .   S
    N0     O25       2.40453      .   S
    Zr24   O26       0.87459      .   S
    N2     O26       1.66983  1_455   S
    Zr27   O28       0.87431      .   S
    N3     O28       1.66882      .   S
    Zr27   O29       1.11748  1_556   S
    N1     O29       2.40330      .   S
    Zr30   O31       1.11732      .   S
    N6     O31       2.40268      .   S
    Zr30   O32       0.87515      .   S
    N4     O32       1.67115      .   S
    Zr33   O34       1.12196      .   S
    N7     O34       2.41648      .   S
    Zr33   O35       0.87469      .   S
    N5     O35       1.66950      .   S
    Zr36   O37       0.87459      .   S
    N6     O37       1.66978  1_655   S
    Zr36   O38       1.11789      .   S
    N5     O38       2.40432      .   S
    Zr39   O40       1.11817  1_554   S
    N4     O40       2.41349      .   S
    Zr39   O41       0.88080      .   S
    N7     O41       1.67519      .   S
