# CIF file generated by openbabel 2.4.90, see http://openbabel.sf.net
data_I
_chemical_name_common ''
_cell_length_a 15.583
_cell_length_b 15.627
_cell_length_c 15.672
_cell_angle_alpha 68.747
_cell_angle_beta 74.069
_cell_angle_gamma 111.034
_space_group_name_H-M_alt 'P 1'
_space_group_name_Hall 'P 1'
loop_
    _symmetry_equiv_pos_as_xyz
    x,y,z
loop_
    _atom_site_label
    _atom_site_type_symbol
    _atom_site_fract_x
    _atom_site_fract_y
    _atom_site_fract_z
    _atom_site_occupancy
    Zr0     Zr   0.56184   0.80873   0.10256   1.000
    Zr1     Zr   0.24391   0.93637   0.06383   1.000
    Zr2     Zr   0.58928   0.69135   0.24811   1.000
    Zr3     Zr   0.50132   0.56561   0.69039   1.000
    Zr4     Zr   0.25164   0.16488   0.93712   1.000
    Zr5     Zr   0.80913   0.81139   0.25640   1.000
    Zr6     Zr   0.39644   0.33690   0.90998   1.000
    Zr7     Zr   0.43644   0.69292   0.99779   1.000
    Zr8     Zr   0.43817   0.19130   0.89744   1.000
    Zr9     Zr   0.75611   0.06366   0.93610   1.000
    Zr10    Zr   0.41074   0.30867   0.75189   1.000
    Zr11    Zr   0.49869   0.43441   0.30960   1.000
    Zr12    Zr   0.74837   0.83514   0.06287   1.000
    Zr13    Zr   0.19088   0.18864   0.74356   1.000
    Zr14    Zr   0.60355   0.66313   0.09002   1.000
    Zr15    Zr   0.56357   0.30711   0.00000   1.000
    Zr16    Zr   0.41316   0.58052   0.25087   1.000
    Zr17    Zr   0.67002   0.92013   0.16730   1.000
    Zr18    Zr   0.33281   0.16513   0.08590   1.000
    Zr19    Zr   0.24872   0.33781   0.82889   1.000
    Zr20    Zr   0.58685   0.41951   0.74914   1.000
    Zr21    Zr   0.32999   0.07990   0.83270   1.000
    Zr22    Zr   0.66720   0.83490   0.91410   1.000
    Zr23    Zr   0.75130   0.66222   0.17111   1.000
    O24     O    0.67596   0.74913   0.07644   1.000
    O25     O    0.65510   0.82193   0.08272   1.000
    O26     O    0.74983   0.74868   0.11699   1.000
    O27     O    0.66882   0.76325   0.15549   1.000
    O28     O    0.36463   0.25102   0.99794   1.000
    O29     O    0.58270   0.73593   0.09629   1.000
    O30     O    0.59642   0.67724   0.16907   1.000
    O31     O    0.63538   0.74901   0.00206   1.000
    O32     O    0.61593   0.86443   0.13493   1.000
    O33     O    0.57556   0.75004   0.17534   1.000
    O34     O    0.50122   0.63593   0.24949   1.000
    O35     O    0.49879   0.36409   0.75052   1.000
    O36     O    0.42445   0.24999   0.82467   1.000
    O37     O    0.40359   0.32279   0.83094   1.000
    O38     O    0.33119   0.23678   0.84451   1.000
    O39     O    0.25018   0.25135   0.88301   1.000
    O40     O    0.38408   0.13560   0.86507   1.000
    O41     O    0.41731   0.26410   0.90371   1.000
    O42     O    0.34490   0.17809   0.91728   1.000
    O43     O    0.32404   0.25089   0.92355   1.000
    N44     N    0.58095   0.65094   0.49484   1.000
    O45     O    0.58422   0.66631   0.40518   1.000
    O46     O    0.55546   0.62389   0.55599   1.000
    O47     O    0.66295   0.70874   0.40662   1.000
    N48     N    0.35502   0.85050   0.06934   1.000
    O49     O    0.42964   0.83481   0.08162   1.000
    O50     O    0.32061   0.87770   0.06785   1.000
    O51     O    0.38659   0.79355   0.04401   1.000
    N52     N    0.00518   0.92772   0.14455   1.000
    O53     O    0.09470   0.01362   0.06970   1.000
    O54     O    0.94383   0.89196   0.17917   1.000
    O55     O    0.09354   0.93346   0.11319   1.000
    N56     N    0.43053   0.57641   0.91822   1.000
    O57     O    0.41791   0.48966   0.91500   1.000
    O58     O    0.43213   0.61225   0.94370   1.000
    O59     O    0.45561   0.56988   0.83640   1.000
    N60     N    0.64499   0.14953   0.92698   1.000
    O61     O    0.57037   0.16522   0.91653   1.000
    O62     O    0.67940   0.12233   0.93028   1.000
    O63     O    0.61342   0.20648   0.95360   1.000
    N64     N    0.41906   0.34909   0.50516   1.000
    O65     O    0.41579   0.33372   0.59482   1.000
    O66     O    0.44455   0.37614   0.44401   1.000
    O67     O    0.33706   0.29129   0.59337   1.000
    N68     N    0.99483   0.07231   0.85537   1.000
    O69     O    0.90531   0.98641   0.93025   1.000
    O70     O    0.05618   0.10807   0.82078   1.000
    O71     O    0.90647   0.06657   0.88675   1.000
    N72     N    0.56948   0.42362   0.08065   1.000
    O73     O    0.58210   0.51037   0.08444   1.000
    O74     O    0.56788   0.38778   0.05519   1.000
    O75     O    0.54441   0.43014   0.16303   1.000
loop_
    _geom_bond_atom_site_label_1
    _geom_bond_atom_site_label_2
    _geom_bond_distance
    _geom_bond_site_symmetry_2
    _ccdc_geom_bond_type
    Zr12   O24       1.30274      .   S
    Zr14   O24       1.30274      .   S
    Zr12   O25       1.31969      .   S
    Zr0    O25       1.31969      .   S
    Zr12   O26       1.32189      .   S
    Zr23   O26       1.32189      .   S
    Zr12   O27       1.31758      .   S
    Zr2    O27       1.31758      .   S
    Zr18   O28       1.32408  1_554   S
    Zr6    O28       1.32408      .   S
    Zr14   O29       1.31852      .   S
    Zr0    O29       1.31852      .   S
    Zr14   O30       1.31745      .   S
    Zr2    O30       1.31745      .   S
    Zr14   O31       1.32407      .   S
    Zr22   O31       1.32407  1_556   S
    Zr0    O32       1.32429      .   S
    Zr17   O32       1.32429      .   S
    Zr0    O33       1.30534      .   S
    Zr2    O33       1.30534      .   S
    Zr2    O34       1.32309      .   S
    Zr16   O34       1.32309      .   S
    Zr20   O35       1.32309      .   S
    Zr10   O35       1.32309      .   S
    Zr10   O36       1.30531      .   S
    Zr8    O36       1.30531      .   S
    Zr10   O37       1.31742      .   S
    Zr6    O37       1.31742      .   S
    Zr10   O38       1.31755      .   S
    Zr4    O38       1.31755      .   S
    Zr19   O39       1.32188      .   S
    Zr4    O39       1.32188      .   S
    Zr21   O40       1.32424      .   S
    Zr8    O40       1.32424      .   S
    Zr8    O41       1.31856      .   S
    Zr6    O41       1.31856      .   S
    Zr8    O42       1.31969      .   S
    Zr4    O42       1.31969      .   S
    Zr6    O43       1.30273      .   S
    Zr4    O43       1.30273      .   S
    N44    O45       1.31983      .   S
    Zr2    O45       2.32201      .   S
    N44    O46       0.79484      .   S
    Zr3    O46       1.74926      .   S
    N44    O47       1.28700      .   S
    Zr5    O47       2.23603      .   S
    N48    O49       1.32009      .   S
    Zr0    O49       2.32263      .   S
    N48    O50       0.79495      .   S
    Zr1    O50       1.74912      .   S
    N48    O51       1.28634      .   S
    Zr7    O51       2.23495  1_556   S
    N52    O53       1.31899  1_565   S
    Zr4    O53       2.32072  1_556   S
    N52    O54       0.79531  1_455   S
    Zr5    O54       1.74918      .   S
    N52    O55       1.28585      .   S
    Zr1    O55       2.23465      .   S
    N56    O57       1.32014      .   S
    Zr6    O57       2.32249      .   S
    N56    O58       0.79456      .   S
    Zr7    O58       1.74861      .   S
    N56    O59       1.28673      .   S
    Zr3    O59       2.23568      .   S
    N60    O61       1.31121      .   S
    Zr8    O61       2.31351      .   S
    N60    O62       0.79603      .   S
    Zr9    O62       1.75029      .   S
    N60    O63       1.29563      .   S
    Zr15   O63       2.23633  1_554   S
    N64    O65       1.31984      .   S
    Zr10   O65       2.32201      .   S
    N64    O66       0.79487      .   S
    Zr11   O66       1.74937      .   S
    N64    O67       1.28691      .   S
    Zr13   O67       2.23578      .   S
    N68    O69       1.31915  1_545   S
    Zr12   O69       2.32088  1_554   S
    N68    O70       0.79526  1_655   S
    Zr13   O70       1.74917      .   S
    N68    O71       1.28588      .   S
    Zr9    O71       2.23464      .   S
    N72    O73       1.32415      .   S
    Zr14   O73       2.32643      .   S
    N72    O74       0.79442      .   S
    Zr15   O74       1.76160      .   S
    N72    O75       1.29501      .   S
    Zr11   O75       2.24392      .   S
