# CIF file generated by openbabel 2.4.90, see http://openbabel.sf.net
data_I
_chemical_name_common ''
_cell_length_a 14.172
_cell_length_b 15
_cell_length_c 15.368
_cell_angle_alpha 90.097
_cell_angle_beta 90.015
_cell_angle_gamma 90.035
_space_group_name_H-M_alt 'P 1'
_space_group_name_Hall 'P 1'
loop_
    _symmetry_equiv_pos_as_xyz
    x,y,z
loop_
    _atom_site_label
    _atom_site_type_symbol
    _atom_site_fract_x
    _atom_site_fract_y
    _atom_site_fract_z
    _atom_site_occupancy
    H0      H    0.28427   0.26798   0.73589   1.000
    H1      H    0.44402   0.50392   0.59203   1.000
    H2      H    0.70493   0.18302   0.86599   1.000
    H3      H    0.21680   0.76854   0.26541   1.000
    H4      H    0.05606   0.00364   0.40782   1.000
    H5      H    0.79659   0.68355   0.13355   1.000
    H6      H    0.71625   0.23243   0.23549   1.000
    H7      H    0.55633   0.99623   0.09191   1.000
    H8      H    0.29526   0.31440   0.36622   1.000
    H9      H    0.78489   0.73214   0.76459   1.000
    H10     H    0.94454   0.49636   0.90744   1.000
    H11     H    0.20548   0.81468   0.63353   1.000
    H12     H    0.71600   0.73189   0.26387   1.000
    H13     H    0.55617   0.49619   0.40791   1.000
    H14     H    0.29533   0.81695   0.13382   1.000
    H15     H    0.78364   0.23137   0.73414   1.000
    H16     H    0.94504   0.99623   0.59117   1.000
    H17     H    0.20376   0.31658   0.86634   1.000
    H18     H    0.28387   0.76732   0.76457   1.000
    H19     H    0.44397   0.00379   0.90787   1.000
    H20     H    0.70482   0.68560   0.63358   1.000
    H21     H    0.21629   0.26827   0.23357   1.000
    H22     H    0.05546   0.50375   0.09132   1.000
    H23     H    0.79627   0.18568   0.36644   1.000
    C24     C    0.50270   0.21989   0.77382   1.000
    C25     C    0.50440   0.24608   0.68626   1.000
    C26     C    0.35981   0.25625   0.73576   1.000
    C27     C    0.57336   0.19326   0.83687   1.000
    C28     C    0.57838   0.24851   0.61692   1.000
    C29     C    0.24270   0.45894   0.50440   1.000
    C30     C    0.23867   0.55172   0.51547   1.000
    C31     C    0.37391   0.50421   0.56354   1.000
    C32     C    0.17603   0.39502   0.46467   1.000
    C33     C    0.16613   0.61815   0.49144   1.000
    C34     C    0.00000   0.72006   0.22653   1.000
    C35     C    0.00000   0.74623   0.31423   1.000
    C36     C    0.14128   0.75669   0.26522   1.000
    C37     C    0.92822   0.69341   0.16312   1.000
    C38     C    0.92267   0.74843   0.38355   1.000
    C39     C    0.25753   0.95899   0.49502   1.000
    C40     C    0.26185   0.05169   0.48356   1.000
    C41     C    0.12626   0.00400   0.43613   1.000
    C42     C    0.32404   0.89521   0.53485   1.000
    C43     C    0.33400   0.11867   0.50736   1.000
    C44     C    0.49760   0.27911   0.27404   1.000
    C45     C    0.49589   0.25326   0.18637   1.000
    C46     C    0.64064   0.24374   0.23556   1.000
    C47     C    0.42676   0.30528   0.33711   1.000
    C48     C    0.42166   0.25117   0.11729   1.000
    C49     C    0.75760   0.04082   0.00000   1.000
    C50     C    0.76172   0.94810   0.01552   1.000
    C51     C    0.62644   0.99582   0.06344   1.000
    C52     C    0.82418   0.10466   0.96455   1.000
    C53     C    0.83412   0.88149   0.99135   1.000
    C54     C    0.00326   0.77983   0.72589   1.000
    C55     C    0.00533   0.75332   0.81330   1.000
    C56     C    0.86046   0.74371   0.76440   1.000
    C57     C    0.07409   0.80674   0.66320   1.000
    C58     C    0.07982   0.75122   0.88221   1.000
    C59     C    0.74345   0.54127   0.99533   1.000
    C60     C    0.73905   0.44853   0.98375   1.000
    C61     C    0.87447   0.49608   0.93598   1.000
    C62     C    0.67693   0.60508   0.03524   1.000
    C63     C    0.66696   0.38149   0.00752   1.000
    C64     C    0.49756   0.77995   0.22594   1.000
    C65     C    0.49587   0.75370   0.31345   1.000
    C66     C    0.64046   0.74360   0.26402   1.000
    C67     C    0.42685   0.80669   0.16296   1.000
    C68     C    0.42171   0.75133   0.38256   1.000
    C69     C    0.75746   0.54112   0.49564   1.000
    C70     C    0.76147   0.44833   0.48455   1.000
    C71     C    0.62627   0.49588   0.43643   1.000
    C72     C    0.82419   0.60501   0.53535   1.000
    C73     C    0.83396   0.38186   0.50859   1.000
    C74     C    0.00171   0.27998   0.77332   1.000
    C75     C    0.00393   0.25377   0.68568   1.000
    C76     C    0.85915   0.24327   0.73445   1.000
    C77     C    0.07205   0.30665   0.83666   1.000
    C78     C    0.07823   0.25158   0.61665   1.000
    C79     C    0.74371   0.04106   0.50373   1.000
    O80     O    0.04675   0.21552   0.54346   1.000
    O81     O    0.71240   0.17632   0.43206   1.000
    O82     O    0.58838   0.09372   0.46295   1.000
    O83     O    0.58691   0.90329   0.46035   1.000
    C84     C    0.73924   0.94838   0.51528   1.000
    C85     C    0.87486   0.99596   0.56282   1.000
    C86     C    0.67705   0.10499   0.46435   1.000
    C87     C    0.66700   0.88146   0.49147   1.000
    C88     C    0.50251   0.72092   0.72579   1.000
    C89     C    0.50428   0.74675   0.81346   1.000
    C90     C    0.35948   0.75610   0.76440   1.000
    C91     C    0.57332   0.69479   0.66271   1.000
    C92     C    0.57857   0.74887   0.88246   1.000
    C93     C    0.24271   0.95912   0.99550   1.000
    C94     C    0.23856   0.05183   0.98428   1.000
    C95     C    0.37386   0.00418   0.93633   1.000
    C96     C    0.17616   0.89526   0.03523   1.000
    C97     C    0.16610   0.11836   0.00837   1.000
    C98     C    0.00000   0.22071   0.27334   1.000
    C99     C    0.00000   0.24694   0.18587   1.000
    C100    C    0.14071   0.25671   0.23412   1.000
    C101    C    0.92781   0.19425   0.33652   1.000
    C102    C    0.92068   0.24886   0.11739   1.000
    C103    C    0.25698   0.45885   0.00000   1.000
    C104    C    0.26142   0.55155   0.01607   1.000
    C105    C    0.12569   0.50404   0.06311   1.000
    C106    C    0.32356   0.39504   0.96457   1.000
    C107    C    0.33365   0.61854   0.99255   1.000
    N108    N    0.41055   0.22675   0.80381   1.000
    N109    N    0.41376   0.26906   0.66443   1.000
    N110    N    0.32936   0.43014   0.53534   1.000
    N111    N    0.32289   0.57907   0.55229   1.000
    N112    N    0.09085   0.72710   0.19684   1.000
    N113    N    0.08707   0.76938   0.33643   1.000
    N114    N    0.17068   0.93014   0.46452   1.000
    N115    N    0.17753   0.07887   0.44697   1.000
    N116    N    0.58984   0.27276   0.30387   1.000
    N117    N    0.58661   0.23089   0.16420   1.000
    N118    N    0.67092   0.06975   0.03510   1.000
    N119    N    0.67750   0.92092   0.05236   1.000
    N120    N    0.91091   0.77341   0.69620   1.000
    N121    N    0.91476   0.73054   0.83548   1.000
    N122    N    0.83022   0.57007   0.96462   1.000
    N123    N    0.82317   0.42131   0.94682   1.000
    N124    N    0.58972   0.77314   0.19598   1.000
    N125    N    0.58648   0.73074   0.33534   1.000
    N126    N    0.67082   0.56995   0.46466   1.000
    N127    N    0.67725   0.42100   0.44769   1.000
    N128    N    0.90940   0.27293   0.80290   1.000
    N129    N    0.91352   0.23057   0.66331   1.000
    N130    N    0.83055   0.06986   0.53428   1.000
    N131    N    0.82344   0.92119   0.55207   1.000
    N132    N    0.41024   0.72718   0.69603   1.000
    N133    N    0.41357   0.76900   0.83570   1.000
    N134    N    0.32938   0.93023   0.96465   1.000
    N135    N    0.32277   0.07905   0.94745   1.000
    N136    N    0.09065   0.22719   0.30265   1.000
    N137    N    0.08604   0.26972   0.16320   1.000
    N138    N    0.17001   0.43008   0.03452   1.000
    N139    N    0.17711   0.57880   0.05265   1.000
    O140    O    0.54732   0.16755   0.91091   1.000
    O141    O    0.66258   0.19917   0.81449   1.000
    O142    O    0.65855   0.21835   0.62705   1.000
    O143    O    0.54668   0.28493   0.54420   1.000
    O144    O    0.21179   0.32392   0.43203   1.000
    O145    O    0.08731   0.40591   0.46313   1.000
    O146    O    0.08666   0.59526   0.45950   1.000
    O147    O    0.18915   0.69919   0.50387   1.000
    O148    O    0.95456   0.66782   0.08903   1.000
    O149    O    0.83890   0.69919   0.18528   1.000
    O150    O    0.84239   0.71851   0.37327   1.000
    O151    O    0.95439   0.78446   0.45677   1.000
    O152    O    0.28830   0.82394   0.56699   1.000
    O153    O    0.41273   0.90651   0.53696   1.000
    O154    O    0.41471   0.09711   0.53722   1.000
    O155    O    0.30927   0.19956   0.49681   1.000
    O156    O    0.45259   0.33249   0.41078   1.000
    O157    O    0.33758   0.29721   0.31505   1.000
    O158    O    0.34160   0.28140   0.12807   1.000
    O159    O    0.45313   0.21514   0.04421   1.000
    O160    O    0.78835   0.17559   0.93181   1.000
    O161    O    0.91292   0.09391   0.96312   1.000
    O162    O    0.91370   0.90408   0.95957   1.000
    O163    O    0.81093   0.80048   0.00344   1.000
    O164    O    0.04844   0.83576   0.59024   1.000
    O165    O    0.16328   0.79731   0.68470   1.000
    O166    O    0.15991   0.78138   0.87111   1.000
    O167    O    0.04859   0.71530   0.95535   1.000
    O168    O    0.71244   0.67634   0.06779   1.000
    O169    O    0.58827   0.59372   0.03698   1.000
    O170    O    0.58648   0.40316   0.03787   1.000
    O171    O    0.69127   0.30056   0.99645   1.000
    O172    O    0.45284   0.83247   0.08894   1.000
    O173    O    0.33763   0.80082   0.18536   1.000
    O174    O    0.34157   0.78131   0.37182   1.000
    O175    O    0.45324   0.71523   0.45553   1.000
    O176    O    0.78855   0.67618   0.56799   1.000
    O177    O    0.91289   0.59404   0.53692   1.000
    O178    O    0.91346   0.40470   0.54050   1.000
    O179    O    0.81090   0.30082   0.49619   1.000
    O180    O    0.04553   0.33232   0.91071   1.000
    O181    O    0.16138   0.30083   0.81468   1.000
    O182    O    0.15844   0.28156   0.62733   1.000
    O183    O    0.69094   0.80054   0.50321   1.000
    O184    O    0.54745   0.66766   0.58901   1.000
    O185    O    0.66251   0.70274   0.68478   1.000
    O186    O    0.65863   0.71872   0.87145   1.000
    O187    O    0.54713   0.78482   0.95560   1.000
    O188    O    0.21209   0.82430   0.06780   1.000
    O189    O    0.08742   0.90603   0.03682   1.000
    O190    O    0.08658   0.09574   0.04025   1.000
    O191    O    0.18921   0.19936   0.99606   1.000
    O192    O    0.95414   0.16645   0.40979   1.000
    O193    O    0.83852   0.20272   0.31519   1.000
    O194    O    0.84069   0.21860   0.12883   1.000
    O195    O    0.95146   0.28480   0.04412   1.000
    O196    O    0.28795   0.32379   0.93195   1.000
    O197    O    0.41223   0.40632   0.96299   1.000
    O198    O    0.41432   0.59694   0.96261   1.000
    O199    O    0.30908   0.69945   0.00340   1.000
loop_
    _geom_bond_atom_site_label_1
    _geom_bond_atom_site_label_2
    _geom_bond_distance
    _geom_bond_site_symmetry_2
    _ccdc_geom_bond_type
    C49    C50       1.41281  1_545   S
    C49    N118      1.41006      .   S
    C49    C52       1.45100  1_554   S
    C103   C104      1.41322      .   S
    C103   N138      1.40968      .   S
    C103   C106      1.45006  1_554   S
    O199   C107      1.27350  1_554   S
    O163   C53       1.27264  1_554   S
    C63    O170      1.27437      .   S
    C63    C60       1.47946  1_554   S
    C63    O171      1.27338  1_554   S
    C97    O190      1.27499      .   S
    C97    C94       1.47918  1_554   S
    C97    O191      1.27265  1_554   S
    C50    N119      1.38271      .   S
    C50    C53       1.47950  1_554   S
    C104   N139      1.38228      .   S
    C104   C107      1.47922  1_554   S
    N138   C105      1.34822      .   S
    N118   C51       1.34837  1_545   S
    C96    O189      1.26827      .   S
    C96    O188      1.28259      .   S
    C96    C93       1.47689  1_554   S
    C62    O169      1.26814      .   S
    C62    O168      1.28205      .   S
    C62    C59       1.47661  1_554   S
    O195   C102      1.32324      .   S
    O159   C48       1.32323      .   S
    N119   C51       1.34727      .   S
    N139   C105      1.34694      .   S
    C105   H22       1.08569      .   S
    C51    H7        1.08575      .   S
    O172   C67       1.25727      .   S
    O148   C37       1.25783      .   S
    C48    O158      1.23319      .   S
    C48    C45       1.49462      .   S
    C102   O194      1.23359      .   S
    C102   C99       1.53995  1_655   S
    H5     O149      1.02247      .   S
    H14    O173      1.02266      .   S
    C67    O173      1.31340      .   S
    C67    C64       1.45021      .   S
    C37    O149      1.31384      .   S
    C37    C34       1.46345  1_655   S
    N137   C99       1.31337      .   S
    N137   C100      1.35157      .   S
    N117   C45       1.37185      .   S
    N117   C46       1.35090      .   S
    C99    C98       1.40130      .   S
    C45    C44       1.40162      .   S
    N124   C64       1.38873      .   S
    N124   C66       1.34475      .   S
    N112   C34       1.37012      .   S
    N112   C36       1.34523      .   S
    C64    C65       1.40222      .   S
    C34    C35       1.40313      .   S
    H21    C100      1.08491      .   S
    C100   N136      1.34547      .   S
    H6     C46       1.08492      .   S
    C46    N116      1.34499      .   S
    H12    C66       1.08494      .   S
    C66    N125      1.35077      .   S
    C36    H3        1.08479      .   S
    C36    N113      1.35054      .   S
    C98    N136      1.36457      .   S
    C98    C101      1.46567  1_455   S
    C44    N116      1.38846      .   S
    C44    C47       1.44952      .   S
    C65    N125      1.37169      .   S
    C65    C68       1.49481      .   S
    C35    N113      1.32613      .   S
    C35    C38       1.52897  1_455   S
    O157   C47       1.31384      .   S
    O157   H8        1.02203      .   S
    O193   C101      1.31348      .   S
    O193   H23       1.02208      .   S
    C101   O192      1.25792      .   S
    C47    O156      1.25717      .   S
    O174   C68       1.23304      .   S
    O150   C38       1.23276      .   S
    C68    O175      1.32378      .   S
    C38    O151      1.32572      .   S
    H4     C41       1.08571      .   S
    H13    C71       1.08576      .   S
    O144   C32       1.28246      .   S
    O81    C86       1.28190      .   S
    C41    N115      1.34724      .   S
    C41    N114      1.34779  1_545   S
    C71    N127      1.34724      .   S
    C71    N126      1.34851      .   S
    N115   C40       1.38256      .   S
    N127   C70       1.38257      .   S
    O146   C33       1.27508      .   S
    O83    C87       1.27475      .   S
    O82    C86       1.26813      .   S
    O145   C32       1.26823      .   S
    C86    C79       1.47675      .   S
    N114   C39       1.38589      .   S
    N126   C69       1.38647      .   S
    C32    C29       1.47705      .   S
    C40    C39       1.40317  1_545   S
    C40    C43       1.47862      .   S
    C70    C69       1.40315      .   S
    C70    C73       1.47934      .   S
    C33    O147      1.27255      .   S
    C33    C30       1.47931      .   S
    C87    O183      1.27355      .   S
    C87    C84       1.47889      .   S
    C39    C42       1.47678      .   S
    C69    C72       1.47717      .   S
    O179   C73       1.27261      .   S
    O155   C43       1.27370      .   S
    C79    C84       1.40320  1_545   S
    C79    N130      1.38568      .   S
    C29    C30       1.40298      .   S
    C29    N110      1.38643      .   S
    C43    O154      1.27440      .   S
    C73    O178      1.27503      .   S
    C84    N131      1.38239      .   S
    C30    N111      1.38259      .   S
    N130   C85       1.34818  1_545   S
    C42    O153      1.26857      .   S
    C42    O152      1.28252      .   S
    N110   C31       1.34845      .   S
    C72    O177      1.26804      .   S
    C72    O176      1.28269      .   S
    O80    C78       1.32445      .   S
    O143   C28       1.32344      .   S
    N131   C85       1.34711      .   S
    N111   C31       1.34722      .   S
    C85    H16       1.08568      .   S
    C31    H1        1.08574      .   S
    O184   C91       1.25733      .   S
    O164   C57       1.25706      .   S
    C78    O182      1.23306      .   S
    C78    C75       1.49518      .   S
    C28    O142      1.23303      .   S
    C28    C25       1.49563      .   S
    H11    O165      1.02219      .   S
    H20    O185      1.02204      .   S
    C91    O185      1.31390      .   S
    C91    C88       1.44913      .   S
    C57    O165      1.31418      .   S
    C57    C54       1.44920      .   S
    N129   C75       1.37101  1_655   S
    N129   C76       1.35095      .   S
    N109   C25       1.37185      .   S
    N109   C26       1.35070      .   S
    C75    C74       1.40286      .   S
    C25    C24       1.40261      .   S
    N132   C88       1.38852      .   S
    N132   C90       1.34488      .   S
    N120   C54       1.38907  1_655   S
    N120   C56       1.34533      .   S
    C88    C89       1.40161      .   S
    C54    C55       1.40184      .   S
    H15    C76       1.08488      .   S
    C76    N128      1.34507      .   S
    C26    H0        1.08497      .   S
    C26    N108      1.34464      .   S
    C90    H18       1.08475      .   S
    C90    N133      1.35077      .   S
    C56    H9        1.08493      .   S
    C56    N121      1.35084      .   S
    C74    N128      1.38908  1_455   S
    C74    C77       1.44869      .   S
    C24    N108      1.38882      .   S
    C24    C27       1.45005      .   S
    C55    N121      1.37147  1_455   S
    C55    C58       1.49551      .   S
    C89    N133      1.37152      .   S
    C89    C92       1.49445      .   S
    O141   C27       1.31339      .   S
    O141   H2        1.02270      .   S
    O181   C77       1.31325      .   S
    O181   H17       1.02275      .   S
    C77    O180      1.25841      .   S
    C27    O140      1.25734      .   S
    O166   C58       1.23357      .   S
    O186   C92       1.23326      .   S
    C58    O167      1.32339      .   S
    C92    O187      1.32330      .   S
    H10    C61       1.08568      .   S
    H19    C95       1.08574      .   S
    O160   C52       1.28264      .   S
    O196   C106      1.28278      .   S
    C61    N123      1.34678      .   S
    C61    N122      1.34848      .   S
    C95    N135      1.34726      .   S
    C95    N134      1.34834  1_545   S
    N123   C60       1.38209      .   S
    N135   C94       1.38271      .   S
    O162   C53       1.27506      .   S
    O198   C107      1.27444      .   S
    O197   C106      1.26809      .   S
    O161   C52       1.26816      .   S
    N122   C59       1.38629      .   S
    N134   C93       1.38625      .   S
    C60    C59       1.40349      .   S
    C94    C93       1.40278  1_545   S
