# CIF file generated by openbabel 2.4.90, see http://openbabel.sf.net
data_I
_chemical_name_common ''
_cell_length_a 14.172
_cell_length_b 15
_cell_length_c 15.368
_cell_angle_alpha 90.097
_cell_angle_beta 90.015
_cell_angle_gamma 90.035
_space_group_name_H-M_alt 'P 1'
_space_group_name_Hall 'P 1'
loop_
    _symmetry_equiv_pos_as_xyz
    x,y,z
loop_
    _atom_site_label
    _atom_site_type_symbol
    _atom_site_fract_x
    _atom_site_fract_y
    _atom_site_fract_z
    _atom_site_occupancy
    Zr0     Zr   0.38742   0.30448   0.53981   1.000
    Zr1     Zr   0.37419   0.70706   0.56646   1.000
    Zr2     Zr   0.11125   0.80460   0.46219   1.000
    Zr3     Zr   0.12725   0.20691   0.43293   1.000
    Zr4     Zr   0.61280   0.19560   0.03946   1.000
    Zr5     Zr   0.62590   0.79299   0.06654   1.000
    Zr6     Zr   0.88922   0.69564   0.96035   1.000
    Zr7     Zr   0.87270   0.29296   0.93301   1.000
    Zr8     Zr   0.61260   0.69558   0.46007   1.000
    Zr9     Zr   0.62586   0.29297   0.43343   1.000
    Zr10    Zr   0.88924   0.19556   0.53758   1.000
    Zr11    Zr   0.87303   0.79311   0.56671   1.000
    Zr12    Zr   0.38728   0.80439   0.96033   1.000
    Zr13    Zr   0.37418   0.20703   0.93336   1.000
    Zr14    Zr   0.11076   0.30446   0.03775   1.000
    Zr15    Zr   0.12729   0.70703   0.06680   1.000
    Zr16    Zr   0.00006   0.49997   0.49999   1.000
    Zr17    Zr   0.50099   0.99987   0.49982   1.000
    Zr18    Zr   0.00007   0.99993   0.99999   1.000
    Zr19    Zr   0.50052   0.49995   0.99998   1.000
    N20     N    0.76123   0.99432   0.00601   1.000
    O21     O    0.70646   0.92564   0.03273   1.000
    O22     O    0.80565   0.87119   0.99395   1.000
    O23     O    0.70154   0.06350   0.02165   1.000
    O24     O    0.79588   0.11430   0.96921   1.000
    N25     N    0.48117   0.77060   0.25997   1.000
    O26     O    0.54449   0.77683   0.19561   1.000
    O27     O    0.45062   0.79452   0.14230   1.000
    O28     O    0.44744   0.74087   0.38548   1.000
    N29     N    0.51902   0.22929   0.73972   1.000
    O30     O    0.45569   0.22309   0.80415   1.000
    O31     O    0.55264   0.25912   0.61427   1.000
    O32     O    0.54954   0.20543   0.85745   1.000
    N33     N    0.23905   0.50545   0.50648   1.000
    O34     O    0.20428   0.38543   0.46948   1.000
    O35     O    0.19462   0.62867   0.49475   1.000
    O36     O    0.29872   0.43638   0.52203   1.000
    O37     O    0.29380   0.57426   0.53293   1.000
    N38     N    0.23907   0.00560   0.99338   1.000
    O39     O    0.19453   0.12876   0.00514   1.000
    O40     O    0.29870   0.93646   0.97794   1.000
    O41     O    0.20438   0.88563   0.03034   1.000
    O42     O    0.29377   0.07432   0.96689   1.000
    N43     N    0.73977   0.49450   0.99298   1.000
    O44     O    0.70447   0.61458   0.03007   1.000
    O45     O    0.79385   0.42581   0.96645   1.000
    O46     O    0.79975   0.56368   0.97773   1.000
    O47     O    0.69590   0.37129   0.00547   1.000
    N48     N    0.98179   0.23007   0.23931   1.000
    O49     O    0.95174   0.20554   0.35650   1.000
    O50     O    0.04537   0.22356   0.30355   1.000
    O51     O    0.94694   0.25947   0.11394   1.000
    N52     N    0.01827   0.27053   0.73920   1.000
    O53     O    0.95466   0.27674   0.80358   1.000
    O54     O    0.04821   0.29446   0.85672   1.000
    O55     O    0.05263   0.24087   0.61370   1.000
    N56     N    0.01994   0.77041   0.76002   1.000
    O57     O    0.04989   0.79529   0.64311   1.000
    O58     O    0.95596   0.77684   0.69573   1.000
    O59     O    0.05394   0.74079   0.88554   1.000
    N60     N    0.98259   0.72949   0.26071   1.000
    O61     O    0.94815   0.75914   0.38622   1.000
    O62     O    0.95224   0.70561   0.14270   1.000
    O63     O    0.04583   0.72328   0.19627   1.000
    N64     N    0.26108   0.00569   0.49285   1.000
    O65     O    0.20102   0.93653   0.47810   1.000
    O66     O    0.30471   0.12886   0.50558   1.000
    O67     O    0.20673   0.07429   0.46640   1.000
    O68     O    0.29616   0.88560   0.52979   1.000
    N69     N    0.48119   0.26994   0.23987   1.000
    O70     O    0.54452   0.27641   0.30426   1.000
    O71     O    0.45059   0.29422   0.35758   1.000
    O72     O    0.44742   0.24051   0.11432   1.000
    N73     N    0.26062   0.50559   0.00631   1.000
    O74     O    0.20050   0.43643   0.02122   1.000
    O75     O    0.30440   0.62876   0.99409   1.000
    O76     O    0.29584   0.38550   0.96948   1.000
    O77     O    0.20641   0.57425   0.03302   1.000
    N78     N    0.76112   0.49459   0.49353   1.000
    O79     O    0.70634   0.42579   0.46705   1.000
    O80     O    0.79595   0.61462   0.53044   1.000
    O81     O    0.80559   0.37139   0.50521   1.000
    O82     O    0.70141   0.56367   0.47795   1.000
    N83     N    0.73996   0.99442   0.50614   1.000
    O84     O    0.70454   0.11453   0.46944   1.000
    O85     O    0.79410   0.92578   0.53277   1.000
    O86     O    0.69586   0.87124   0.49389   1.000
    O87     O    0.79993   0.06356   0.52104   1.000
    N88     N    0.51895   0.73004   0.75997   1.000
    O89     O    0.45558   0.72358   0.69561   1.000
    O90     O    0.54949   0.70583   0.64225   1.000
    O91     O    0.55273   0.75947   0.88552   1.000
    O92     O    0.14129   0.50287   0.49356   1.000
    O93     O    0.85887   0.49713   0.50644   1.000
    O94     O    0.14130   0.00300   0.00632   1.000
    O95     O    0.85896   0.99689   0.99334   1.000
    O96     O    0.97769   0.73985   0.84395   1.000
    O97     O    0.52370   0.73994   0.34386   1.000
    O98     O    0.52376   0.23962   0.15585   1.000
    O99     O    0.02429   0.76012   0.34505   1.000
    O100    O    0.02327   0.26046   0.15501   1.000
    O101    O    0.64186   0.49685   0.00584   1.000
    O102    O    0.35876   0.50319   0.99385   1.000
    O103    O    0.47642   0.26001   0.65589   1.000
    O104    O    0.47638   0.76034   0.84398   1.000
    O105    O    0.97648   0.23992   0.65484   1.000
    O106    O    0.35921   0.00327   0.50565   1.000
    O107    O    0.64214   0.99680   0.49344   1.000
loop_
    _geom_bond_atom_site_label_1
    _geom_bond_atom_site_label_2
    _geom_bond_distance
    _geom_bond_site_symmetry_2
    _ccdc_geom_bond_type
    N20    O21       1.35387      .   S
    Zr5    O21       2.35235      .   S
    N20    O22       1.96018  1_554   S
    Zr6    O22       2.93305      .   S
    N20    O23       1.36020  1_565   S
    Zr4    O23       2.36311      .   S
    N20    O24       1.94993  1_564   S
    Zr7    O24       2.94598      .   S
    N25    O26       1.33892      .   S
    Zr5    O26       2.30804      .   S
    N25    O27       1.89423      .   S
    Zr12   O27       2.94083  1_556   S
    N25    O28       2.03742      .   S
    Zr1    O28       3.01271      .   S
    N29    O30       1.33985      .   S
    Zr13   O30       2.31033      .   S
    N29    O31       2.03653      .   S
    Zr9    O31       3.01055      .   S
    N29    O32       1.89489      .   S
    Zr4    O32       2.94099  1_554   S
    N33    O34       1.95000      .   S
    Zr3    O34       2.94442      .   S
    N33    O35       1.96153      .   S
    Zr2    O35       2.93568      .   S
    N33    O36       1.35922      .   S
    Zr0    O36       2.36091      .   S
    N33    O37       1.35269      .   S
    Zr1    O37       2.35056      .   S
    N38    O39       1.96061  1_556   S
    Zr14   O39       2.93358      .   S
    N38    O40       1.35892  1_545   S
    Zr12   O40       2.36110      .   S
    N38    O41       1.95068  1_546   S
    Zr15   O41       2.94734      .   S
    N38    O42       1.35273      .   S
    Zr13   O42       2.35108      .   S
    N43    O44       1.95383  1_556   S
    Zr5    O44       2.95202      .   S
    N43    O45       1.34716      .   S
    Zr7    O45       2.34174      .   S
    N43    O46       1.36163      .   S
    Zr6    O46       2.36575      .   S
    N43    O47       1.95931  1_556   S
    Zr4    O47       2.93362      .   S
    N48    O49       1.88749      .   S
    Zr10   O49       2.92476      .   S
    N48    O50       1.34016  1_655   S
    Zr3    O50       2.31585      .   S
    N48    O51       2.03801      .   S
    Zr7    O51       3.01563  1_556   S
    N52    O53       1.34174  1_455   S
    Zr7    O53       2.31620      .   S
    N52    O54       1.88880      .   S
    Zr14   O54       2.92328  1_554   S
    N52    O55       2.03789      .   S
    Zr3    O55       3.01541      .   S
    N56    O57       1.88402      .   S
    Zr2    O57       2.91708      .   S
    N56    O58       1.34439  1_455   S
    Zr11   O58       2.31809      .   S
    N56    O59       2.03809      .   S
    Zr15   O59       3.01663  1_554   S
    N60    O61       2.03825      .   S
    Zr11   O61       3.01393      .   S
    N60    O62       1.89726      .   S
    Zr6    O62       2.94459  1_556   S
    N60    O63       1.33900  1_655   S
    Zr15   O63       2.31313      .   S
    N64    O65       1.36020  1_545   S
    Zr2    O65       2.36430      .   S
    N64    O66       1.95730      .   S
    Zr0    O66       2.92946      .   S
    N64    O67       1.34885      .   S
    Zr3    O67       2.34445      .   S
    N64    O68       1.95425  1_545   S
    Zr1    O68       2.95310      .   S
    N69    O70       1.33915      .   S
    Zr9    O70       2.30830      .   S
    N69    O71       1.89513      .   S
    Zr0    O71       2.94421      .   S
    N69    O72       2.03533      .   S
    Zr13   O72       3.00956  1_556   S
    N73    O74       1.36180      .   S
    Zr14   O74       2.36636      .   S
    N73    O75       1.95783  1_554   S
    Zr12   O75       2.93098      .   S
    N73    O76       1.95252  1_554   S
    Zr13   O76       2.95069      .   S
    N73    O77       1.34872      .   S
    Zr15   O77       2.34373      .   S
    N78    O79       1.35310      .   S
    Zr9    O79       2.35162      .   S
    N78    O80       1.94994      .   S
    Zr11   O80       2.94341      .   S
    N78    O81       1.96140      .   S
    Zr10   O81       2.93547      .   S
    N78    O82       1.35977      .   S
    Zr8    O82       2.36198      .   S
    N83    O84       1.95463  1_565   S
    Zr9    O84       2.95342      .   S
    N83    O85       1.34838      .   S
    Zr11   O85       2.34298      .   S
    N83    O86       1.95888      .   S
    Zr8    O86       2.93201      .   S
    N83    O87       1.35956  1_565   S
    Zr10   O87       2.36261      .   S
    N88    O89       1.33913      .   S
    Zr1    O89       2.30821      .   S
    N88    O90       1.89475      .   S
    Zr8    O90       2.94318      .   S
    N88    O91       2.03554      .   S
    Zr5    O91       3.01003  1_554   S
    Zr16   O92       2.00432      .   S
    N33    O92       1.40009      .   S
    Zr16   O93       2.00397  1_455   S
    N78    O93       1.39990      .   S
    Zr18   O94       2.00432  1_566   S
    N38    O94       1.40030  1_556   S
    Zr18   O95       2.00296  1_455   S
    N20    O95       1.39927  1_554   S
    Zr6    O96       2.28376      .   S
    N56    O96       1.49481  1_455   S
    Zr8    O97       2.28550      .   S
    N25    O97       1.49630      .   S
    Zr4    O98       2.28608      .   S
    N69    O98       1.49559      .   S
    Zr2    O99       2.27989      .   S
    N60    O99       1.49587  1_655   S
    Zr14   O100      2.28569      .   S
    N48    O100      1.49467  1_655   S
    Zr19   O101      2.00563  1_556   S
    N43    O101      1.40211  1_556   S
    Zr19   O102      2.01184      .   S
    N73    O102      1.40446  1_554   S
    Zr0    O103      2.28522      .   S
    N29    O103      1.49619      .   S
    Zr12   O104      2.28620      .   S
    N88    O104      1.49544      .   S
    Zr10   O105      2.28308      .   S
    N52    O105      1.49654  1_455   S
    Zr17   O106      2.01186  1_565   S
    N64    O106      1.40509      .   S
    Zr17   O107      2.00339      .   S
    N83    O107      1.40047      .   S
