# CIF file generated by openbabel 2.4.90, see http://openbabel.sf.net
data_I
_chemical_name_common ''
_cell_length_a 14.172
_cell_length_b 15
_cell_length_c 15.368
_cell_angle_alpha 90.097
_cell_angle_beta 90.015
_cell_angle_gamma 90.035
_space_group_name_H-M_alt 'P 1'
_space_group_name_Hall 'P 1'
loop_
    _symmetry_equiv_pos_as_xyz
    x,y,z
loop_
    _atom_site_label
    _atom_site_type_symbol
    _atom_site_fract_x
    _atom_site_fract_y
    _atom_site_fract_z
    _atom_site_occupancy
    C0      C    0.38742   0.30448   0.53981   1.000
    C1      C    0.37419   0.70706   0.56646   1.000
    C2      C    0.11125   0.80460   0.46219   1.000
    C3      C    0.12725   0.20691   0.43293   1.000
    C4      C    0.61280   0.19560   0.03946   1.000
    C5      C    0.62590   0.79299   0.06654   1.000
    C6      C    0.88922   0.69564   0.96035   1.000
    C7      C    0.87270   0.29296   0.93301   1.000
    C8      C    0.61260   0.69558   0.46007   1.000
    C9      C    0.62586   0.29297   0.43343   1.000
    C10     C    0.88924   0.19556   0.53758   1.000
    C11     C    0.87303   0.79311   0.56671   1.000
    C12     C    0.38728   0.80439   0.96033   1.000
    C13     C    0.37418   0.20703   0.93336   1.000
    C14     C    0.11076   0.30446   0.03775   1.000
    C15     C    0.12729   0.70703   0.06680   1.000
    C16     C    0.00006   0.49997   0.49999   1.000
    C17     C    0.50099   0.99987   0.49982   1.000
    C18     C    0.00007   0.99993   0.99999   1.000
    C19     C    0.50052   0.49995   0.99998   1.000
    C20     C    0.28427   0.26798   0.73589   1.000
    C21     C    0.44402   0.50392   0.59203   1.000
    C22     C    0.70493   0.18302   0.86599   1.000
    C23     C    0.21680   0.76854   0.26541   1.000
    C24     C    0.05606   0.00364   0.40782   1.000
    C25     C    0.79659   0.68355   0.13355   1.000
    C26     C    0.71625   0.23243   0.23549   1.000
    C27     C    0.55633   0.99623   0.09191   1.000
    C28     C    0.29526   0.31440   0.36622   1.000
    C29     C    0.78489   0.73214   0.76459   1.000
    C30     C    0.94454   0.49636   0.90744   1.000
    C31     C    0.20548   0.81468   0.63353   1.000
    C32     C    0.71600   0.73189   0.26387   1.000
    C33     C    0.55617   0.49619   0.40791   1.000
    C34     C    0.29533   0.81695   0.13382   1.000
    C35     C    0.78364   0.23137   0.73414   1.000
    C36     C    0.94504   0.99623   0.59117   1.000
    C37     C    0.20376   0.31658   0.86634   1.000
    C38     C    0.28387   0.76732   0.76457   1.000
    C39     C    0.44397   0.00379   0.90787   1.000
    C40     C    0.70482   0.68560   0.63358   1.000
    C41     C    0.21629   0.26827   0.23357   1.000
    C42     C    0.05546   0.50375   0.09132   1.000
    C43     C    0.79627   0.18568   0.36644   1.000
    C44     C    0.50270   0.21989   0.77382   1.000
    C45     C    0.50440   0.24608   0.68626   1.000
    C46     C    0.35981   0.25625   0.73576   1.000
    C47     C    0.57336   0.19326   0.83687   1.000
    C48     C    0.57838   0.24851   0.61692   1.000
    C49     C    0.24270   0.45894   0.50440   1.000
    C50     C    0.23867   0.55172   0.51547   1.000
    C51     C    0.37391   0.50421   0.56354   1.000
    C52     C    0.17603   0.39502   0.46467   1.000
    C53     C    0.16613   0.61815   0.49144   1.000
    C54     C    0.00000   0.72006   0.22653   1.000
    C55     C    0.00000   0.74623   0.31423   1.000
    C56     C    0.14128   0.75669   0.26522   1.000
    C57     C    0.92822   0.69341   0.16312   1.000
    C58     C    0.92267   0.74843   0.38355   1.000
    C59     C    0.25753   0.95899   0.49502   1.000
    C60     C    0.26185   0.05169   0.48356   1.000
    C61     C    0.12626   0.00400   0.43613   1.000
    C62     C    0.32404   0.89521   0.53485   1.000
    C63     C    0.33400   0.11867   0.50736   1.000
    C64     C    0.49760   0.27911   0.27404   1.000
    C65     C    0.49589   0.25326   0.18637   1.000
    C66     C    0.64064   0.24374   0.23556   1.000
    C67     C    0.42676   0.30528   0.33711   1.000
    C68     C    0.42166   0.25117   0.11729   1.000
    C69     C    0.75760   0.04082   0.00000   1.000
    C70     C    0.76172   0.94810   0.01552   1.000
    C71     C    0.62644   0.99582   0.06344   1.000
    C72     C    0.82418   0.10466   0.96455   1.000
    C73     C    0.83412   0.88149   0.99135   1.000
    C74     C    0.00326   0.77983   0.72589   1.000
    C75     C    0.00533   0.75332   0.81330   1.000
    C76     C    0.86046   0.74371   0.76440   1.000
    C77     C    0.07409   0.80674   0.66320   1.000
    C78     C    0.07982   0.75122   0.88221   1.000
    C79     C    0.74345   0.54127   0.99533   1.000
    C80     C    0.73905   0.44853   0.98375   1.000
    C81     C    0.87447   0.49608   0.93598   1.000
    C82     C    0.67693   0.60508   0.03524   1.000
    C83     C    0.66696   0.38149   0.00752   1.000
    C84     C    0.49756   0.77995   0.22594   1.000
    C85     C    0.49587   0.75370   0.31345   1.000
    C86     C    0.64046   0.74360   0.26402   1.000
    C87     C    0.42685   0.80669   0.16296   1.000
    C88     C    0.42171   0.75133   0.38256   1.000
    C89     C    0.75746   0.54112   0.49564   1.000
    C90     C    0.76147   0.44833   0.48455   1.000
    C91     C    0.62627   0.49588   0.43643   1.000
    C92     C    0.82419   0.60501   0.53535   1.000
    C93     C    0.83396   0.38186   0.50859   1.000
    C94     C    0.00171   0.27998   0.77332   1.000
    C95     C    0.00393   0.25377   0.68568   1.000
    C96     C    0.85915   0.24327   0.73445   1.000
    C97     C    0.07205   0.30665   0.83666   1.000
    C98     C    0.07823   0.25158   0.61665   1.000
    C99     C    0.74371   0.04106   0.50373   1.000
    C100    C    0.73924   0.94838   0.51528   1.000
    C101    C    0.87486   0.99596   0.56282   1.000
    C102    C    0.67705   0.10499   0.46435   1.000
    C103    C    0.66700   0.88146   0.49147   1.000
    C104    C    0.50251   0.72092   0.72579   1.000
    C105    C    0.50428   0.74675   0.81346   1.000
    C106    C    0.35948   0.75610   0.76440   1.000
    C107    C    0.57332   0.69479   0.66271   1.000
    C108    C    0.57857   0.74887   0.88246   1.000
    C109    C    0.24271   0.95912   0.99550   1.000
    C110    C    0.23856   0.05183   0.98428   1.000
    C111    C    0.37386   0.00418   0.93633   1.000
    C112    C    0.17616   0.89526   0.03523   1.000
    C113    C    0.16610   0.11836   0.00837   1.000
    C114    C    0.00000   0.22071   0.27334   1.000
    C115    C    0.00000   0.24694   0.18587   1.000
    C116    C    0.14071   0.25671   0.23412   1.000
    C117    C    0.92781   0.19425   0.33652   1.000
    C118    C    0.92068   0.24886   0.11739   1.000
    C119    C    0.25698   0.45885   0.00000   1.000
    C120    C    0.26142   0.55155   0.01607   1.000
    C121    C    0.12569   0.50404   0.06311   1.000
    C122    C    0.32356   0.39504   0.96457   1.000
    C123    C    0.33365   0.61854   0.99255   1.000
    C124    C    0.41055   0.22675   0.80381   1.000
    C125    C    0.41376   0.26906   0.66443   1.000
    C126    C    0.32936   0.43014   0.53534   1.000
    C127    C    0.32289   0.57907   0.55229   1.000
    C128    C    0.09085   0.72710   0.19684   1.000
    C129    C    0.08707   0.76938   0.33643   1.000
    C130    C    0.17068   0.93014   0.46452   1.000
    C131    C    0.17753   0.07887   0.44697   1.000
    C132    C    0.58984   0.27276   0.30387   1.000
    C133    C    0.58661   0.23089   0.16420   1.000
    C134    C    0.67092   0.06975   0.03510   1.000
    C135    C    0.67750   0.92092   0.05236   1.000
    C136    C    0.91091   0.77341   0.69620   1.000
    C137    C    0.91476   0.73054   0.83548   1.000
    C138    C    0.83022   0.57007   0.96462   1.000
    C139    C    0.82317   0.42131   0.94682   1.000
    C140    C    0.58972   0.77314   0.19598   1.000
    C141    C    0.58648   0.73074   0.33534   1.000
    C142    C    0.67082   0.56995   0.46466   1.000
    C143    C    0.67725   0.42100   0.44769   1.000
    C144    C    0.90940   0.27293   0.80290   1.000
    C145    C    0.91352   0.23057   0.66331   1.000
    C146    C    0.83055   0.06986   0.53428   1.000
    C147    C    0.82344   0.92119   0.55207   1.000
    C148    C    0.41024   0.72718   0.69603   1.000
    C149    C    0.41357   0.76900   0.83570   1.000
    C150    C    0.32938   0.93023   0.96465   1.000
    C151    C    0.32277   0.07905   0.94745   1.000
    C152    C    0.09065   0.22719   0.30265   1.000
    C153    C    0.08604   0.26972   0.16320   1.000
    C154    C    0.17001   0.43008   0.03452   1.000
    C155    C    0.17711   0.57880   0.05265   1.000
    C156    C    0.54732   0.16755   0.91091   1.000
    C157    C    0.66258   0.19917   0.81449   1.000
    C158    C    0.65855   0.21835   0.62705   1.000
    C159    C    0.54668   0.28493   0.54420   1.000
    C160    C    0.21179   0.32392   0.43203   1.000
    C161    C    0.08731   0.40591   0.46313   1.000
    C162    C    0.08666   0.59526   0.45950   1.000
    C163    C    0.18915   0.69919   0.50387   1.000
    C164    C    0.95456   0.66782   0.08903   1.000
    C165    C    0.83890   0.69919   0.18528   1.000
    C166    C    0.84239   0.71851   0.37327   1.000
    C167    C    0.95439   0.78446   0.45677   1.000
    C168    C    0.28830   0.82394   0.56699   1.000
    C169    C    0.41273   0.90651   0.53696   1.000
    C170    C    0.41471   0.09711   0.53722   1.000
    C171    C    0.30927   0.19956   0.49681   1.000
    C172    C    0.45259   0.33249   0.41078   1.000
    C173    C    0.33758   0.29721   0.31505   1.000
    C174    C    0.34160   0.28140   0.12807   1.000
    C175    C    0.45313   0.21514   0.04421   1.000
    C176    C    0.78835   0.17559   0.93181   1.000
    C177    C    0.91292   0.09391   0.96312   1.000
    C178    C    0.91370   0.90408   0.95957   1.000
    C179    C    0.81093   0.80048   0.00344   1.000
    C180    C    0.04844   0.83576   0.59024   1.000
    C181    C    0.16328   0.79731   0.68470   1.000
    C182    C    0.15991   0.78138   0.87111   1.000
    C183    C    0.04859   0.71530   0.95535   1.000
    C184    C    0.71244   0.67634   0.06779   1.000
    C185    C    0.58827   0.59372   0.03698   1.000
    C186    C    0.58648   0.40316   0.03787   1.000
    C187    C    0.69127   0.30056   0.99645   1.000
    C188    C    0.45284   0.83247   0.08894   1.000
    C189    C    0.33763   0.80082   0.18536   1.000
    C190    C    0.34157   0.78131   0.37182   1.000
    C191    C    0.45324   0.71523   0.45553   1.000
    C192    C    0.78855   0.67618   0.56799   1.000
    C193    C    0.91289   0.59404   0.53692   1.000
    C194    C    0.91346   0.40470   0.54050   1.000
    C195    C    0.81090   0.30082   0.49619   1.000
    C196    C    0.04553   0.33232   0.91071   1.000
    C197    C    0.16138   0.30083   0.81468   1.000
    C198    C    0.15844   0.28156   0.62733   1.000
    C199    C    0.04675   0.21552   0.54346   1.000
    C200    C    0.71240   0.17632   0.43206   1.000
    C201    C    0.58838   0.09372   0.46295   1.000
    C202    C    0.58691   0.90329   0.46035   1.000
    C203    C    0.69094   0.80054   0.50321   1.000
    C204    C    0.54745   0.66766   0.58901   1.000
    C205    C    0.66251   0.70274   0.68478   1.000
    C206    C    0.65863   0.71872   0.87145   1.000
    C207    C    0.54713   0.78482   0.95560   1.000
    C208    C    0.21209   0.82430   0.06780   1.000
    C209    C    0.08742   0.90603   0.03682   1.000
    C210    C    0.08658   0.09574   0.04025   1.000
    C211    C    0.18921   0.19936   0.99606   1.000
    C212    C    0.95414   0.16645   0.40979   1.000
    C213    C    0.83852   0.20272   0.31519   1.000
    C214    C    0.84069   0.21860   0.12883   1.000
    C215    C    0.95146   0.28480   0.04412   1.000
    C216    C    0.28795   0.32379   0.93195   1.000
    C217    C    0.41223   0.40632   0.96299   1.000
    C218    C    0.41432   0.59694   0.96261   1.000
    C219    C    0.30908   0.69945   0.00340   1.000
    O220    O    0.75966   0.99446   0.00776   1.000
    O221    O    0.71426   0.05529   0.01755   1.000
    O222    O    0.79089   0.07274   0.98227   1.000
    O223    O    0.25920   0.50520   0.00804   1.000
    O224    O    0.21350   0.44446   0.01726   1.000
    O225    O    0.29027   0.42694   0.98228   1.000
    O226    O    0.34818   0.75192   0.98186   1.000
    O227    O    0.32136   0.65899   0.99798   1.000
    O228    O    0.85008   0.74806   0.98189   1.000
    O229    O    0.82253   0.84099   0.99740   1.000
    O230    O    0.62672   0.39233   0.02269   1.000
    O231    O    0.70300   0.41501   0.99563   1.000
    O232    O    0.67911   0.34103   0.00198   1.000
    O233    O    0.12634   0.10705   0.02431   1.000
    O234    O    0.20233   0.08510   0.99633   1.000
    O235    O    0.17766   0.15886   0.00221   1.000
    O236    O    0.71961   0.93451   0.03394   1.000
    O237    O    0.79792   0.91479   0.00344   1.000
    O238    O    0.21927   0.56517   0.03436   1.000
    O239    O    0.29753   0.58504   0.00431   1.000
    O240    O    0.14039   0.36727   0.03614   1.000
    O241    O    0.14785   0.46706   0.04882   1.000
    O242    O    0.64186   0.13267   0.03728   1.000
    O243    O    0.64868   0.03278   0.04927   1.000
    O244    O    0.13179   0.90064   0.03603   1.000
    O245    O    0.19412   0.85978   0.05151   1.000
    O246    O    0.20943   0.92719   0.01536   1.000
    O247    O    0.63260   0.59940   0.03611   1.000
    O248    O    0.69468   0.64071   0.05151   1.000
    O249    O    0.71019   0.57318   0.01528   1.000
    O250    O    0.04375   0.95298   0.01841   1.000
    O251    O    0.54439   0.54683   0.01848   1.000
    O252    O    0.09840   0.28709   0.10047   1.000
    O253    O    0.07815   0.31839   0.97423   1.000
    O254    O    0.14999   0.25191   0.01690   1.000
    O255    O    0.54350   0.45155   0.01893   1.000
    O256    O    0.59971   0.21324   0.10183   1.000
    O257    O    0.58006   0.18157   0.97518   1.000
    O258    O    0.65204   0.24808   0.01795   1.000
    O259    O    0.04333   0.04783   0.02012   1.000
    O260    O    0.93607   0.26683   0.08076   1.000
    O261    O    0.91208   0.28888   0.98856   1.000
    O262    O    0.43740   0.23315   0.08075   1.000
    O263    O    0.41366   0.21108   0.98878   1.000
    O264    O    0.65197   0.95837   0.05790   1.000
    O265    O    0.65170   0.85695   0.05945   1.000
    O266    O    0.15140   0.54142   0.05788   1.000
    O267    O    0.15220   0.64291   0.05972   1.000
    O268    O    0.09057   0.50389   0.07722   1.000
    O269    O    0.59138   0.99602   0.07768   1.000
    O270    O    0.66917   0.73466   0.06716   1.000
    O271    O    0.60781   0.78306   0.13126   1.000
    O272    O    0.58651   0.78891   0.01107   1.000
    O273    O    0.16969   0.76566   0.06730   1.000
    O274    O    0.10907   0.71707   0.13182   1.000
    O275    O    0.08794   0.71116   0.01107   1.000
    O276    O    0.43985   0.81958   0.12595   1.000
    O277    O    0.42006   0.81843   0.02464   1.000
    O278    O    0.94139   0.68061   0.12608   1.000
    O279    O    0.92189   0.68173   0.02469   1.000
    O280    O    0.38163   0.26628   0.12268   1.000
    O281    O    0.45877   0.25221   0.15183   1.000
    O282    O    0.88069   0.23373   0.12311   1.000
    O283    O    0.96034   0.24790   0.15163   1.000
    O284    O    0.81774   0.69137   0.15941   1.000
    O285    O    0.31648   0.80888   0.15959   1.000
    O286    O    0.38224   0.80375   0.17416   1.000
    O287    O    0.46220   0.79332   0.19445   1.000
    O288    O    0.88356   0.69630   0.17420   1.000
    O289    O    0.96411   0.70673   0.19483   1.000
    O290    O    0.04302   0.25833   0.17454   1.000
    O291    O    0.11338   0.26321   0.19866   1.000
    O292    O    0.54125   0.24207   0.17529   1.000
    O293    O    0.61363   0.23732   0.19988   1.000
    O294    O    0.00000   0.23383   0.22961   1.000
    O295    O    0.49675   0.26618   0.23021   1.000
    O296    O    0.54364   0.77654   0.21096   1.000
    O297    O    0.61509   0.75837   0.23000   1.000
    O298    O    0.04542   0.72358   0.21169   1.000
    O299    O    0.11606   0.74190   0.23103   1.000
    O300    O    0.49671   0.76682   0.26969   1.000
    O301    O    0.00000   0.73314   0.27038   1.000
    O302    O    0.17850   0.26249   0.23385   1.000
    O303    O    0.11568   0.24195   0.26838   1.000
    O304    O    0.67845   0.23808   0.23553   1.000
    O305    O    0.61524   0.25825   0.26972   1.000
    O306    O    0.67823   0.73774   0.26394   1.000
    O307    O    0.61347   0.73717   0.29968   1.000
    O308    O    0.17904   0.76261   0.26532   1.000
    O309    O    0.11418   0.76303   0.30082   1.000
    O310    O    0.04532   0.22395   0.28800   1.000
    O311    O    0.96391   0.20748   0.30493   1.000
    O312    O    0.54372   0.27593   0.28896   1.000
    O313    O    0.46218   0.29219   0.30558   1.000
    O314    O    0.10895   0.21705   0.36779   1.000
    O315    O    0.60785   0.28287   0.36865   1.000
    O316    O    0.54118   0.74222   0.32440   1.000
    O317    O    0.45879   0.75251   0.34800   1.000
    O318    O    0.04354   0.75780   0.32533   1.000
    O319    O    0.96134   0.74733   0.34889   1.000
    O320    O    0.38217   0.30125   0.32608   1.000
    O321    O    0.31642   0.30581   0.34063   1.000
    O322    O    0.88317   0.19849   0.32586   1.000
    O323    O    0.81740   0.19420   0.34082   1.000
    O324    O    0.59954   0.71316   0.39771   1.000
    O325    O    0.09916   0.78699   0.39931   1.000
    O326    O    0.94098   0.18035   0.37316   1.000
    O327    O    0.43967   0.31888   0.37394   1.000
    O328    O    0.38164   0.76632   0.37719   1.000
    O329    O    0.88253   0.73347   0.37841   1.000
    O330    O    0.43748   0.73328   0.41904   1.000
    O331    O    0.93853   0.76644   0.42016   1.000
    O332    O    0.09116   0.00382   0.42197   1.000
    O333    O    0.59122   0.49603   0.42217   1.000
    O334    O    0.92169   0.18100   0.47369   1.000
    O335    O    0.42000   0.31849   0.47530   1.000
    O336    O    0.16952   0.26541   0.43248   1.000
    O337    O    0.19391   0.35947   0.44835   1.000
    O338    O    0.66913   0.23464   0.43275   1.000
    O339    O    0.69473   0.14065   0.44820   1.000
    O340    O    0.15239   0.14289   0.43995   1.000
    O341    O    0.08700   0.21121   0.48820   1.000
    O342    O    0.65155   0.35699   0.44056   1.000
    O343    O    0.58627   0.28895   0.48882   1.000
    O344    O    0.15189   0.04143   0.44155   1.000
    O345    O    0.14847   0.96707   0.45033   1.000
    O346    O    0.65176   0.45844   0.44206   1.000
    O347    O    0.64854   0.53291   0.45055   1.000
    O348    O    0.21969   0.06528   0.46526   1.000
    O349    O    0.71936   0.43466   0.46612   1.000
    O350    O    0.41371   0.71114   0.51099   1.000
    O351    O    0.91371   0.78878   0.51174   1.000
    O352    O    0.12640   0.60670   0.47547   1.000
    O353    O    0.04336   0.54762   0.47974   1.000
    O354    O    0.64171   0.63276   0.46237   1.000
    O355    O    0.65177   0.74806   0.48164   1.000
    O356    O    0.58003   0.68162   0.52454   1.000
    O357    O    0.62696   0.89237   0.47591   1.000
    O358    O    0.54395   0.95158   0.48008   1.000
    O359    O    0.14096   0.86737   0.46335   1.000
    O360    O    0.15020   0.75190   0.48303   1.000
    O361    O    0.07984   0.82018   0.52621   1.000
    O362    O    0.63272   0.09935   0.46365   1.000
    O363    O    0.54468   0.04679   0.48138   1.000
    O364    O    0.13167   0.40046   0.46390   1.000
    O365    O    0.04369   0.45294   0.48156   1.000
    O366    O    0.71038   0.07302   0.48404   1.000
    O367    O    0.21411   0.94456   0.47977   1.000
    O368    O    0.71414   0.55553   0.48015   1.000
    O369    O    0.20937   0.42698   0.48453   1.000
    O370    O    0.25969   0.00534   0.48929   1.000
    O371    O    0.29792   0.08518   0.49546   1.000
    O372    O    0.75946   0.49472   0.49009   1.000
    O373    O    0.79771   0.41509   0.49657   1.000
    O374    O    0.17764   0.65867   0.49766   1.000
    O375    O    0.20240   0.58493   0.50345   1.000
    O376    O    0.67897   0.84100   0.49734   1.000
    O377    O    0.70312   0.91492   0.50337   1.000
    O378    O    0.29078   0.92710   0.51494   1.000
    O379    O    0.79083   0.57306   0.51550   1.000
    O380    O    0.82243   0.34134   0.50239   1.000
    O381    O    0.85007   0.24819   0.51689   1.000
    O382    O    0.32164   0.15912   0.50208   1.000
    O383    O    0.34834   0.25202   0.51831   1.000
    O384    O    0.45686   0.95319   0.51839   1.000
    O385    O    0.45785   0.04849   0.51852   1.000
    O386    O    0.95648   0.54700   0.51845   1.000
    O387    O    0.95676   0.45234   0.52024   1.000
    O388    O    0.74148   0.99472   0.50950   1.000
    O389    O    0.78713   0.05546   0.51901   1.000
    O390    O    0.24068   0.50533   0.50994   1.000
    O391    O    0.28603   0.44454   0.51987   1.000
    O392    O    0.37436   0.10789   0.52229   1.000
    O393    O    0.87371   0.39328   0.52454   1.000
    O394    O    0.78134   0.93478   0.53368   1.000
    O395    O    0.28078   0.56540   0.53388   1.000
    O396    O    0.85990   0.13271   0.53593   1.000
    O397    O    0.85271   0.03291   0.54855   1.000
    O398    O    0.36838   0.90086   0.53591   1.000
    O399    O    0.30617   0.85958   0.55092   1.000
    O400    O    0.35839   0.36731   0.53758   1.000
    O401    O    0.35163   0.46718   0.54944   1.000
    O402    O    0.86854   0.59952   0.53613   1.000
    O403    O    0.80637   0.64059   0.55167   1.000
    O404    O    0.90138   0.21307   0.60045   1.000
    O405    O    0.40059   0.28677   0.60212   1.000
    O406    O    0.06249   0.23355   0.58006   1.000
    O407    O    0.56253   0.26672   0.58056   1.000
    O408    O    0.84915   0.95857   0.55745   1.000
    O409    O    0.84824   0.85715   0.55939   1.000
    O410    O    0.34840   0.54164   0.55792   1.000
    O411    O    0.34854   0.64306   0.55937   1.000
    O412    O    0.90995   0.99610   0.57700   1.000
    O413    O    0.40896   0.50407   0.57779   1.000
    O414    O    0.33124   0.76550   0.56672   1.000
    O415    O    0.39221   0.71712   0.63125   1.000
    O416    O    0.83079   0.73464   0.56735   1.000
    O417    O    0.89197   0.78326   0.63145   1.000
    O418    O    0.56039   0.68122   0.62586   1.000
    O419    O    0.06126   0.82125   0.62672   1.000
    O420    O    0.11833   0.26657   0.62199   1.000
    O421    O    0.04108   0.25268   0.65117   1.000
    O422    O    0.61846   0.23343   0.62199   1.000
    O423    O    0.54139   0.24729   0.65159   1.000
    O424    O    0.18438   0.80600   0.65911   1.000
    O425    O    0.68366   0.69417   0.65918   1.000
    O426    O    0.61791   0.69876   0.67374   1.000
    O427    O    0.53791   0.70785   0.69425   1.000
    O428    O    0.11868   0.80203   0.67395   1.000
    O429    O    0.03867   0.79328   0.69454   1.000
    O430    O    0.95873   0.24217   0.67449   1.000
    O431    O    0.88634   0.23692   0.69888   1.000
    O432    O    0.45908   0.25757   0.67535   1.000
    O433    O    0.38678   0.26265   0.70010   1.000
    O434    O    0.00282   0.26688   0.72950   1.000
    O435    O    0.50355   0.23298   0.73004   1.000
    O436    O    0.45637   0.72405   0.71091   1.000
    O437    O    0.38486   0.74164   0.73022   1.000
    O438    O    0.95709   0.77662   0.71105   1.000
    O439    O    0.88569   0.75856   0.73030   1.000
    O440    O    0.50339   0.73383   0.76963   1.000
    O441    O    0.00430   0.76657   0.76960   1.000
    O442    O    0.82139   0.23732   0.73429   1.000
    O443    O    0.88428   0.25810   0.76867   1.000
    O444    O    0.32204   0.26211   0.73583   1.000
    O445    O    0.38518   0.24150   0.76979   1.000
    O446    O    0.32167   0.76171   0.76448   1.000
    O447    O    0.38652   0.76255   0.80005   1.000
    O448    O    0.82267   0.73792   0.76450   1.000
    O449    O    0.88761   0.73712   0.79994   1.000
    O450    O    0.95556   0.27646   0.78811   1.000
    O451    O    0.03688   0.29332   0.80499   1.000
    O452    O    0.45662   0.22332   0.78881   1.000
    O453    O    0.53803   0.20657   0.80535   1.000
    O454    O    0.89105   0.28294   0.86795   1.000
    O455    O    0.39236   0.21689   0.86858   1.000
    O456    O    0.96005   0.74193   0.82439   1.000
    O457    O    0.04258   0.75227   0.84776   1.000
    O458    O    0.45892   0.75787   0.82458   1.000
    O459    O    0.54142   0.74781   0.84796   1.000
    O460    O    0.61797   0.19622   0.82568   1.000
    O461    O    0.68375   0.19110   0.84024   1.000
    O462    O    0.11671   0.30374   0.82567   1.000
    O463    O    0.18256   0.30871   0.84051   1.000
    O464    O    0.90199   0.71309   0.89791   1.000
    O465    O    0.40042   0.78669   0.89802   1.000
    O466    O    0.05879   0.31949   0.87369   1.000
    O467    O    0.56034   0.18040   0.87389   1.000
    O468    O    0.11987   0.76630   0.87666   1.000
    O469    O    0.61860   0.73380   0.87696   1.000
    O470    O    0.06421   0.73326   0.91878   1.000
    O471    O    0.56285   0.76685   0.91903   1.000
    O472    O    0.90951   0.49622   0.92171   1.000
    O473    O    0.40891   0.00398   0.92210   1.000
    O474    O    0.83053   0.23427   0.93241   1.000
    O475    O    0.80627   0.14013   0.94818   1.000
    O476    O    0.33106   0.26541   0.93266   1.000
    O477    O    0.30575   0.35941   0.94826   1.000
    O478    O    0.84794   0.35713   0.93992   1.000
    O479    O    0.34848   0.14304   0.94040   1.000
    O480    O    0.84882   0.45869   0.94140   1.000
    O481    O    0.85235   0.53307   0.95030   1.000
    O482    O    0.34831   0.04161   0.94189   1.000
    O483    O    0.35162   0.96720   0.95049   1.000
    O484    O    0.78111   0.43492   0.96528   1.000
    O485    O    0.28067   0.06544   0.96587   1.000
    O486    O    0.87391   0.89279   0.97546   1.000
    O487    O    0.95689   0.95200   0.97978   1.000
    O488    O    0.35833   0.86731   0.96249   1.000
    O489    O    0.85972   0.63286   0.96249   1.000
    O490    O    0.37398   0.60774   0.97758   1.000
    O491    O    0.45742   0.54844   0.98130   1.000
    O492    O    0.36789   0.40068   0.96378   1.000
    O493    O    0.45637   0.45314   0.98149   1.000
    O494    O    0.86855   0.09928   0.96383   1.000
    O495    O    0.95650   0.04692   0.98155   1.000
    O496    O    0.78683   0.55567   0.97998   1.000
    O497    O    0.28604   0.94468   0.98007   1.000
    O498    O    0.74125   0.49490   0.98954   1.000
    O499    O    0.24064   0.00548   0.98989   1.000
    O500    O    0.46705   0.29471   0.54201   1.000
    O501    O    0.03282   0.79453   0.45948   1.000
    O502    O    0.53297   0.20537   0.04183   1.000
    O503    O    0.96891   0.70547   0.95785   1.000
    O504    O    0.53292   0.70540   0.45780   1.000
    O505    O    0.96800   0.20554   0.54052   1.000
    O506    O    0.46720   0.79461   0.95797   1.000
    O507    O    0.03111   0.29463   0.04093   1.000
loop_
    _geom_bond_atom_site_label_1
    _geom_bond_atom_site_label_2
    _geom_bond_distance
    _geom_bond_site_symmetry_2
    _ccdc_geom_bond_type
    C69    O220      0.70641  1_545   S
    C70    O220      0.70641      .   S
    C69    O221      0.70503      .   S
    C134   O221      0.70503      .   S
    C69    O222      0.72550  1_554   S
    C72    O222      0.72550      .   S
    C119   O223      0.70661      .   S
    C120   O223      0.70661      .   S
    C119   O224      0.70484      .   S
    C154   O224      0.70484      .   S
    C119   O225      0.72503  1_554   S
    C122   O225      0.72503      .   S
    C219   O226      1.01809  1_554   S
    C12    O226      1.01809      .   S
    C219   O227      0.63675  1_554   S
    C123   O227      0.63675      .   S
    C179   O228      1.01752  1_554   S
    C6     O228      1.01752      .   S
    C179   O229      0.63632  1_554   S
    C73    O229      0.63632      .   S
    C83    O230      0.63719      .   S
    C186   O230      0.63719      .   S
    C83    O231      0.73973  1_554   S
    C80    O231      0.73973      .   S
    C83    O232      0.63669      .   S
    C187   O232      0.63669  1_556   S
    C113   O233      0.63749      .   S
    C210   O233      0.63749      .   S
    C113   O234      0.73959  1_554   S
    C110   O234      0.73959      .   S
    C113   O235      0.63633      .   S
    C211   O235      0.63633  1_556   S
    C70    O236      0.69136      .   S
    C135   O236      0.69136      .   S
    C70    O237      0.73975      .   S
    C73    O237      0.73975  1_556   S
    C120   O238      0.69114      .   S
    C155   O238      0.69114      .   S
    C120   O239      0.73961      .   S
    C123   O239      0.73961  1_556   S
    C154   O240      1.03157      .   S
    C14    O240      1.03157      .   S
    C154   O241      0.67411      .   S
    C121   O241      0.67411      .   S
    C134   O242      1.03051      .   S
    C4     O242      1.03051      .   S
    C134   O243      0.67418      .   S
    C71    O243      0.67418  1_565   S
    C112   O244      0.63413      .   S
    C209   O244      0.63413      .   S
    C112   O245      0.64129      .   S
    C208   O245      0.64129      .   S
    C112   O246      0.73844      .   S
    C109   O246      0.73844  1_556   S
    C82    O247      0.63407      .   S
    C185   O247      0.63407      .   S
    C82    O248      0.64102      .   S
    C184   O248      0.64102      .   S
    C82    O249      0.73831      .   S
    C79    O249      0.73831  1_556   S
    C209   O250      0.97992      .   S
    C18    O250      0.97992  1_556   S
    C185   O251      0.98017      .   S
    C19    O251      0.98017  1_556   S
    C14    O252      1.01426      .   S
    C153   O252      1.01426      .   S
    C14    O253      1.10033  1_554   S
    C196   O253      1.10033      .   S
    C14    O254      1.01622      .   S
    C211   O254      1.01622  1_556   S
    C186   O255      0.99193      .   S
    C19    O255      0.99193  1_556   S
    C4     O256      1.01124      .   S
    C133   O256      1.01124      .   S
    C4     O257      1.11096  1_554   S
    C156   O257      1.11096      .   S
    C4     O258      1.01906      .   S
    C187   O258      1.01906  1_556   S
    C210   O259      0.99316      .   S
    C18    O259      0.99316  1_566   S
    C215   O260      0.66162      .   S
    C118   O260      0.66162      .   S
    C215   O261      1.02179  1_554   S
    C7     O261      1.02179      .   S
    C175   O262      0.66162      .   S
    C68    O262      0.66162      .   S
    C175   O263      1.02068  1_554   S
    C13    O263      1.02068      .   S
    C135   O264      0.67364      .   S
    C71    O264      0.67364      .   S
    C135   O265      1.03253      .   S
    C5     O265      1.03253      .   S
    C155   O266      0.67347      .   S
    C121   O266      0.67347      .   S
    C155   O267      1.03030      .   S
    C15    O267      1.03030      .   S
    C121   O268      0.54284      .   S
    C42    O268      0.54284      .   S
    C71    O269      0.54288      .   S
    C27    O269      0.54288      .   S
    C5     O270      1.06874      .   S
    C184   O270      1.06874      .   S
    C5     O271      1.03817      .   S
    C140   O271      1.03817      .   S
    C5     O272      1.02055      .   S
    C207   O272      1.02055  1_556   S
    C15    O273      1.06492      .   S
    C208   O273      1.06492      .   S
    C15    O274      1.04285      .   S
    C128   O274      1.04285      .   S
    C15    O275      1.02383      .   S
    C183   O275      1.02383  1_556   S
    C188   O276      0.62864      .   S
    C87    O276      0.62864      .   S
    C188   O277      1.11164      .   S
    C12    O277      1.11164  1_556   S
    C164   O278      0.62891      .   S
    C57    O278      0.62891      .   S
    C164   O279      1.11187      .   S
    C6     O279      1.11187  1_556   S
    C68    O280      0.61659      .   S
    C174   O280      0.61659      .   S
    C68    O281      0.74731      .   S
    C65    O281      0.74731      .   S
    C118   O282      0.61679      .   S
    C214   O282      0.61679      .   S
    C118   O283      0.76998      .   S
    C115   O283      0.76998  1_455   S
    C25    O284      0.51124      .   S
    C165   O284      0.51124      .   S
    C34    O285      0.51133      .   S
    C189   O285      0.51133      .   S
    C87    O286      0.65670      .   S
    C189   O286      0.65670      .   S
    C87    O287      0.72511      .   S
    C84    O287      0.72511      .   S
    C57    O288      0.65692      .   S
    C165   O288      0.65692      .   S
    C57    O289      0.73173      .   S
    C54    O289      0.73173  1_455   S
    C153   O290      0.65668      .   S
    C115   O290      0.65668      .   S
    C153   O291      0.67578      .   S
    C116   O291      0.67578      .   S
    C133   O292      0.68593      .   S
    C65    O292      0.68593      .   S
    C133   O293      0.67545      .   S
    C66    O293      0.67545      .   S
    C115   O294      0.70065      .   S
    C114   O294      0.70065      .   S
    C65    O295      0.70081      .   S
    C64    O295      0.70081      .   S
    C140   O296      0.69436      .   S
    C84    O296      0.69436      .   S
    C140   O297      0.67237      .   S
    C86    O297      0.67237      .   S
    C128   O298      0.68506      .   S
    C54    O298      0.68506      .   S
    C128   O299      0.67261      .   S
    C56    O299      0.67261      .   S
    C84    O300      0.70111      .   S
    C85    O300      0.70111      .   S
    C54    O301      0.70157      .   S
    C55    O301      0.70157      .   S
    C41    O302      0.54246      .   S
    C116   O302      0.54246      .   S
    C116   O303      0.67274      .   S
    C152   O303      0.67274      .   S
    C26    O304      0.54246      .   S
    C66    O304      0.54246      .   S
    C66    O305      0.67249      .   S
    C132   O305      0.67249      .   S
    C32    O306      0.54247      .   S
    C86    O306      0.54247      .   S
    C86    O307      0.67538      .   S
    C141   O307      0.67538      .   S
    C56    O308      0.54240      .   S
    C23    O308      0.54240      .   S
    C56    O309      0.67527      .   S
    C129   O309      0.67527      .   S
    C114   O310      0.68229      .   S
    C152   O310      0.68229      .   S
    C114   O311      0.73284  1_455   S
    C117   O311      0.73284      .   S
    C64    O312      0.69423      .   S
    C132   O312      0.69423      .   S
    C64    O313      0.72476      .   S
    C67    O313      0.72476      .   S
    C152   O314      1.04547      .   S
    C3     O314      1.04547      .   S
    C132   O315      1.03857      .   S
    C9     O315      1.03857      .   S
    C85    O316      0.68585      .   S
    C141   O316      0.68585      .   S
    C85    O317      0.74740      .   S
    C88    O317      0.74740      .   S
    C55    O318      0.66306      .   S
    C129   O318      0.66306      .   S
    C55    O319      0.76448  1_455   S
    C58    O319      0.76448      .   S
    C173   O320      0.65692      .   S
    C67    O320      0.65692      .   S
    C173   O321      0.51102      .   S
    C28    O321      0.51102      .   S
    C213   O322      0.65674      .   S
    C117   O322      0.65674      .   S
    C213   O323      0.51104      .   S
    C43    O323      0.51104      .   S
    C141   O324      1.01154      .   S
    C8     O324      1.01154      .   S
    C129   O325      1.01580      .   S
    C2     O325      1.01580      .   S
    C117   O326      0.62896      .   S
    C212   O326      0.62896      .   S
    C67    O327      0.62858      .   S
    C172   O327      0.62858      .   S
    C190   O328      0.61652      .   S
    C88    O328      0.61652      .   S
    C166   O329      0.61638      .   S
    C58    O329      0.61638      .   S
    C88    O330      0.66189      .   S
    C191   O330      0.66189      .   S
    C58    O331      0.66286      .   S
    C167   O331      0.66286      .   S
    C24    O332      0.54285      .   S
    C61    O332      0.54285      .   S
    C33    O333      0.54288      .   S
    C91    O333      0.54288      .   S
    C212   O334      1.10593      .   S
    C10    O334      1.10593      .   S
    C172   O335      1.11412      .   S
    C0     O335      1.11412      .   S
    C160   O336      1.06228      .   S
    C3     O336      1.06228      .   S
    C160   O337      0.64123      .   S
    C52    O337      0.64123      .   S
    C200   O338      1.06880      .   S
    C9     O338      1.06880      .   S
    C200   O339      0.64095      .   S
    C102   O339      0.64095      .   S
    C3     O340      1.03028      .   S
    C131   O340      1.03028      .   S
    C3     O341      1.02517      .   S
    C199   O341      1.02517      .   S
    C9     O342      1.03241      .   S
    C143   O342      1.03241      .   S
    C9     O343      1.02139      .   S
    C159   O343      1.02139      .   S
    C61    O344      0.67362      .   S
    C131   O344      0.67362      .   S
    C61    O345      0.67390  1_545   S
    C130   O345      0.67390      .   S
    C91    O346      0.67362      .   S
    C143   O346      0.67362      .   S
    C91    O347      0.67426      .   S
    C142   O347      0.67426      .   S
    C131   O348      0.69128      .   S
    C60    O348      0.69128      .   S
    C143   O349      0.69129      .   S
    C90    O349      0.69129      .   S
    C191   O350      1.02204      .   S
    C1     O350      1.02204      .   S
    C167   O351      1.02487      .   S
    C11    O351      1.02487      .   S
    C162   O352      0.63754      .   S
    C53    O352      0.63754      .   S
    C162   O353      0.99215      .   S
    C16    O353      0.99215      .   S
    C8     O354      1.02947      .   S
    C142   O354      1.02947      .   S
    C8     O355      1.01796      .   S
    C203   O355      1.01796      .   S
    C8     O356      1.11324      .   S
    C204   O356      1.11324      .   S
    C202   O357      0.63738      .   S
    C103   O357      0.63738      .   S
    C202   O358      0.99363      .   S
    C17    O358      0.99363      .   S
    C2     O359      1.03130      .   S
    C130   O359      1.03130      .   S
    C2     O360      1.01665      .   S
    C163   O360      1.01665      .   S
    C2     O361      1.10478      .   S
    C180   O361      1.10478      .   S
    C201   O362      0.63406      .   S
    C102   O362      0.63406      .   S
    C201   O363      0.97948      .   S
    C17    O363      0.97948  1_565   S
    C161   O364      0.63411      .   S
    C52    O364      0.63411      .   S
    C161   O365      0.97982      .   S
    C16    O365      0.97982      .   S
    C102   O366      0.73838      .   S
    C99    O366      0.73838      .   S
    C130   O367      0.69295      .   S
    C59    O367      0.69295      .   S
    C142   O368      0.69323      .   S
    C89    O368      0.69323      .   S
    C52    O369      0.73853      .   S
    C49    O369      0.73853      .   S
    C60    O370      0.70159      .   S
    C59    O370      0.70159  1_565   S
    C60    O371      0.73931      .   S
    C63    O371      0.73931      .   S
    C90    O372      0.70158      .   S
    C89    O372      0.70158      .   S
    C90    O373      0.73967      .   S
    C93    O373      0.73967      .   S
    C53    O374      0.63627      .   S
    C163   O374      0.63627      .   S
    C53    O375      0.73965      .   S
    C50    O375      0.73965      .   S
    C103   O376      0.63677      .   S
    C203   O376      0.63677      .   S
    C103   O377      0.73945      .   S
    C100   O377      0.73945      .   S
    C59    O378      0.73839      .   S
    C62    O378      0.73839      .   S
    C89    O379      0.73858      .   S
    C92    O379      0.73858      .   S
    C195   O380      0.63630      .   S
    C93    O380      0.63630      .   S
    C195   O381      1.01679      .   S
    C10    O381      1.01679      .   S
    C171   O382      0.63685      .   S
    C63    O382      0.63685      .   S
    C171   O383      1.01664      .   S
    C0     O383      1.01664      .   S
    C17    O384      0.98140      .   S
    C169   O384      0.98140      .   S
    C17    O385      0.99402  1_565   S
    C170   O385      0.99402      .   S
    C16    O386      0.97968  1_455   S
    C193   O386      0.97968      .   S
    C16    O387      0.99217  1_455   S
    C194   O387      0.99217      .   S
    C99    O388      0.70160  1_545   S
    C100   O388      0.70160      .   S
    C99    O389      0.69284      .   S
    C146   O389      0.69284      .   S
    C49    O390      0.70149      .   S
    C50    O390      0.70149      .   S
    C49    O391      0.69321      .   S
    C126   O391      0.69321      .   S
    C63    O392      0.63720      .   S
    C170   O392      0.63720      .   S
    C93    O393      0.63752      .   S
    C194   O393      0.63752      .   S
    C100   O394      0.69119      .   S
    C147   O394      0.69119      .   S
    C50    O395      0.69129      .   S
    C127   O395      0.69129      .   S
    C146   O396      1.03044      .   S
    C10    O396      1.03044      .   S
    C146   O397      0.67409      .   S
    C101   O397      0.67409  1_565   S
    C62    O398      0.63428      .   S
    C169   O398      0.63428      .   S
    C62    O399      0.64126      .   S
    C168   O399      0.64126      .   S
    C126   O400      1.02913      .   S
    C0     O400      1.02913      .   S
    C126   O401      0.67423      .   S
    C51    O401      0.67423      .   S
    C92    O402      0.63402      .   S
    C193   O402      0.63402      .   S
    C92    O403      0.64135      .   S
    C192   O403      0.64135      .   S
    C10    O404      1.01533      .   S
    C145   O404      1.01533      .   S
    C0     O405      1.01153      .   S
    C125   O405      1.01153      .   S
    C199   O406      0.66222      .   S
    C98    O406      0.66222      .   S
    C159   O407      0.66172      .   S
    C48    O407      0.66172      .   S
    C147   O408      0.67356      .   S
    C101   O408      0.67356      .   S
    C147   O409      1.02934      .   S
    C11    O409      1.02934      .   S
    C127   O410      0.67361      .   S
    C51    O410      0.67361      .   S
    C127   O411      1.03180      .   S
    C1     O411      1.03180      .   S
    C101   O412      0.54284      .   S
    C36    O412      0.54284      .   S
    C51    O413      0.54287      .   S
    C21    O413      0.54287      .   S
    C1     O414      1.06746      .   S
    C168   O414      1.06746      .   S
    C1     O415      1.03858      .   S
    C148   O415      1.03858      .   S
    C11    O416      1.06163      .   S
    C192   O416      1.06163      .   S
    C11    O417      1.04137      .   S
    C136   O417      1.04137      .   S
    C204   O418      0.62866      .   S
    C107   O418      0.62866      .   S
    C180   O419      0.62853      .   S
    C77    O419      0.62853      .   S
    C98    O420      0.61653      .   S
    C198   O420      0.61653      .   S
    C98    O421      0.74759      .   S
    C95    O421      0.74759      .   S
    C48    O422      0.61651      .   S
    C158   O422      0.61651      .   S
    C48    O423      0.74781      .   S
    C45    O423      0.74781      .   S
    C31    O424      0.51109      .   S
    C181   O424      0.51109      .   S
    C40    O425      0.51102      .   S
    C205   O425      0.51102      .   S
    C107   O426      0.65695      .   S
    C205   O426      0.65695      .   S
    C107   O427      0.72457      .   S
    C104   O427      0.72457      .   S
    C77    O428      0.65709      .   S
    C181   O428      0.65709      .   S
    C77    O429      0.72460      .   S
    C74    O429      0.72460      .   S
    C145   O430      0.68550      .   S
    C95    O430      0.68550  1_455   S
    C145   O431      0.67548      .   S
    C96    O431      0.67548      .   S
    C125   O432      0.68593      .   S
    C45    O432      0.68593      .   S
    C125   O433      0.67535      .   S
    C46    O433      0.67535      .   S
    C95    O434      0.70143      .   S
    C94    O434      0.70143      .   S
    C45    O435      0.70131      .   S
    C44    O435      0.70131      .   S
    C148   O436      0.69426      .   S
    C104   O436      0.69426      .   S
    C148   O437      0.67244      .   S
    C106   O437      0.67244      .   S
    C136   O438      0.69454      .   S
    C74    O438      0.69454  1_455   S
    C136   O439      0.67267      .   S
    C76    O439      0.67267      .   S
    C104   O440      0.70080      .   S
    C105   O440      0.70080      .   S
    C74    O441      0.70092      .   S
    C75    O441      0.70092      .   S
    C35    O442      0.54244      .   S
    C96    O442      0.54244      .   S
    C96    O443      0.67253      .   S
    C144   O443      0.67253      .   S
    C46    O444      0.54248      .   S
    C20    O444      0.54248      .   S
    C46    O445      0.67232      .   S
    C124   O445      0.67232      .   S
    C106   O446      0.54238      .   S
    C38    O446      0.54238      .   S
    C106   O447      0.67538      .   S
    C149   O447      0.67538      .   S
    C76    O448      0.54246      .   S
    C29    O448      0.54246      .   S
    C76    O449      0.67542      .   S
    C137   O449      0.67542      .   S
    C94    O450      0.69454  1_455   S
    C144   O450      0.69454      .   S
    C94    O451      0.72435      .   S
    C97    O451      0.72435      .   S
    C44    O452      0.69441      .   S
    C124   O452      0.69441      .   S
    C44    O453      0.72502      .   S
    C47    O453      0.72502      .   S
    C144   O454      1.04378      .   S
    C7     O454      1.04378      .   S
    C124   O455      1.03914      .   S
    C13    O455      1.03914      .   S
    C75    O456      0.68573  1_455   S
    C137   O456      0.68573      .   S
    C75    O457      0.74775      .   S
    C78    O457      0.74775      .   S
    C105   O458      0.68576      .   S
    C149   O458      0.68576      .   S
    C105   O459      0.74723      .   S
    C108   O459      0.74723      .   S
    C157   O460      0.65670      .   S
    C47    O460      0.65670      .   S
    C157   O461      0.51135      .   S
    C22    O461      0.51135      .   S
    C197   O462      0.65662      .   S
    C97    O462      0.65662      .   S
    C197   O463      0.51138      .   S
    C37    O463      0.51138      .   S
    C137   O464      1.01125      .   S
    C6     O464      1.01125      .   S
    C149   O465      1.01072      .   S
    C12    O465      1.01072      .   S
    C97    O466      0.62920      .   S
    C196   O466      0.62920      .   S
    C47    O467      0.62867      .   S
    C156   O467      0.62867      .   S
    C182   O468      0.61678      .   S
    C78    O468      0.61678      .   S
    C206   O469      0.61663      .   S
    C108   O469      0.61663      .   S
    C78    O470      0.66170      .   S
    C183   O470      0.66170      .   S
    C108   O471      0.66165      .   S
    C207   O471      0.66165      .   S
    C30    O472      0.54284      .   S
    C81    O472      0.54284      .   S
    C39    O473      0.54287      .   S
    C111   O473      0.54287      .   S
    C176   O474      1.06375      .   S
    C7     O474      1.06375      .   S
    C176   O475      0.64132      .   S
    C72    O475      0.64132      .   S
    C216   O476      1.06817      .   S
    C13    O476      1.06817      .   S
    C216   O477      0.64139      .   S
    C122   O477      0.64139      .   S
    C7     O478      1.03012      .   S
    C139   O478      1.03012      .   S
    C13    O479      1.03229      .   S
    C151   O479      1.03229      .   S
    C81    O480      0.67339      .   S
    C139   O480      0.67339      .   S
    C81    O481      0.67424      .   S
    C138   O481      0.67424      .   S
    C111   O482      0.67363      .   S
    C151   O482      0.67363      .   S
    C111   O483      0.67417  1_545   S
    C150   O483      0.67417      .   S
    C139   O484      0.69105      .   S
    C80    O484      0.69105      .   S
    C151   O485      0.69135      .   S
    C110   O485      0.69135      .   S
    C178   O486      0.63753      .   S
    C73    O486      0.63753      .   S
    C178   O487      0.99323      .   S
    C18    O487      0.99323  1_455   S
    C12    O488      1.02980      .   S
    C150   O488      1.02980      .   S
    C6     O489      1.03079      .   S
    C138   O489      1.03079      .   S
    C218   O490      0.63722      .   S
    C123   O490      0.63722      .   S
    C218   O491      0.99289      .   S
    C19    O491      0.99289      .   S
    C217   O492      0.63405      .   S
    C122   O492      0.63405      .   S
    C217   O493      0.98184      .   S
    C19    O493      0.98184      .   S
    C177   O494      0.63408      .   S
    C72    O494      0.63408      .   S
    C177   O495      0.97959      .   S
    C18    O495      0.97959  1_465   S
    C138   O496      0.69315      .   S
    C79    O496      0.69315      .   S
    C150   O497      0.69312      .   S
    C109   O497      0.69312      .   S
    C80    O498      0.70175      .   S
    C79    O498      0.70175      .   S
    C110   O499      0.70139      .   S
    C109   O499      0.70139  1_565   S
    C159   O500      1.13858      .   S
    C0     O500      1.13858      .   S
    C167   O501      1.12236  1_655   S
    C2     O501      1.12236      .   S
    C175   O502      1.14156      .   S
    C4     O502      1.14156      .   S
    C183   O503      1.13943  1_455   S
    C6     O503      1.13943      .   S
    C191   O504      1.13942      .   S
    C8     O504      1.13942      .   S
    C199   O505      1.12692  1_455   S
    C10    O505      1.12692      .   S
    C207   O506      1.14284      .   S
    C12    O506      1.14284      .   S
    C215   O507      1.13938  1_655   S
    C14    O507      1.13938      .   S
