# CIF file generated by openbabel 2.4.90, see http://openbabel.sf.net
data_I
_chemical_name_common ''
_cell_length_a 14.172
_cell_length_b 15
_cell_length_c 15.368
_cell_angle_alpha 90.097
_cell_angle_beta 90.015
_cell_angle_gamma 90.035
_space_group_name_H-M_alt 'P 1'
_space_group_name_Hall 'P 1'
loop_
    _symmetry_equiv_pos_as_xyz
    x,y,z
loop_
    _atom_site_label
    _atom_site_type_symbol
    _atom_site_fract_x
    _atom_site_fract_y
    _atom_site_fract_z
    _atom_site_occupancy
    Zr0     Zr   0.38742   0.30448   0.53981   1.000
    Zr1     Zr   0.37419   0.70706   0.56646   1.000
    Zr2     Zr   0.11125   0.80460   0.46219   1.000
    Zr3     Zr   0.12725   0.20691   0.43293   1.000
    Zr4     Zr   0.61280   0.19560   0.03946   1.000
    Zr5     Zr   0.62590   0.79299   0.06654   1.000
    Zr6     Zr   0.88922   0.69564   0.96035   1.000
    Zr7     Zr   0.87270   0.29296   0.93301   1.000
    Zr8     Zr   0.61260   0.69558   0.46007   1.000
    Zr9     Zr   0.62586   0.29297   0.43343   1.000
    Zr10    Zr   0.88924   0.19556   0.53758   1.000
    Zr11    Zr   0.87303   0.79311   0.56671   1.000
    Zr12    Zr   0.38728   0.80439   0.96033   1.000
    Zr13    Zr   0.37418   0.20703   0.93336   1.000
    Zr14    Zr   0.11076   0.30446   0.03775   1.000
    Zr15    Zr   0.12729   0.70703   0.06680   1.000
    Zr16    Zr   0.00006   0.49997   0.49999   1.000
    Zr17    Zr   0.50099   0.99987   0.49982   1.000
    Zr18    Zr   0.00007   0.99993   0.99999   1.000
    Zr19    Zr   0.50052   0.49995   0.99998   1.000
    N20     N    0.76123   0.99432   0.00601   1.000
    O21     O    0.85886   0.02062   0.99378   1.000
    O22     O    0.85906   0.97316   0.99290   1.000
    O23     O    0.70646   0.92564   0.03273   1.000
    O24     O    0.80565   0.87119   0.99395   1.000
    O25     O    0.70154   0.06350   0.02165   1.000
    O26     O    0.79588   0.11430   0.96921   1.000
    N27     N    0.48117   0.77060   0.25997   1.000
    O28     O    0.54449   0.77683   0.19561   1.000
    O29     O    0.45062   0.79452   0.14230   1.000
    O30     O    0.44744   0.74087   0.38548   1.000
    O31     O    0.50705   0.73800   0.35888   1.000
    O32     O    0.54036   0.74188   0.32884   1.000
    N33     N    0.51902   0.22929   0.73972   1.000
    O34     O    0.45981   0.25803   0.67092   1.000
    O35     O    0.45569   0.22309   0.80415   1.000
    O36     O    0.55264   0.25912   0.61427   1.000
    O37     O    0.49303   0.26200   0.64087   1.000
    O38     O    0.54954   0.20543   0.85745   1.000
    N39     N    0.23905   0.50545   0.50648   1.000
    O40     O    0.14121   0.52653   0.49311   1.000
    O41     O    0.20428   0.38543   0.46948   1.000
    O42     O    0.14137   0.47920   0.49402   1.000
    O43     O    0.19462   0.62867   0.49475   1.000
    O44     O    0.29872   0.43638   0.52203   1.000
    O45     O    0.29380   0.57426   0.53293   1.000
    N46     N    0.23907   0.00560   0.99338   1.000
    O47     O    0.14141   0.97929   0.00589   1.000
    O48     O    0.19453   0.12876   0.00514   1.000
    O49     O    0.29870   0.93646   0.97794   1.000
    O50     O    0.20438   0.88563   0.03034   1.000
    O51     O    0.14120   0.02672   0.00675   1.000
    O52     O    0.29377   0.07432   0.96689   1.000
    N53     N    0.73977   0.49450   0.99298   1.000
    O54     O    0.64208   0.52067   0.00573   1.000
    O55     O    0.70447   0.61458   0.03007   1.000
    O56     O    0.64164   0.47303   0.00595   1.000
    O57     O    0.79385   0.42581   0.96645   1.000
    O58     O    0.79975   0.56368   0.97773   1.000
    O59     O    0.69590   0.37129   0.00547   1.000
    N60     N    0.98179   0.23007   0.23931   1.000
    O61     O    0.95174   0.20554   0.35650   1.000
    O62     O    0.04009   0.25858   0.16989   1.000
    O63     O    0.04537   0.22356   0.30355   1.000
    O64     O    0.94694   0.25947   0.11394   1.000
    O65     O    0.00645   0.26235   0.14012   1.000
    N66     N    0.01827   0.27053   0.73920   1.000
    O67     O    0.95466   0.27674   0.80358   1.000
    O68     O    0.95982   0.24180   0.66982   1.000
    O69     O    0.04821   0.29446   0.85672   1.000
    O70     O    0.05263   0.24087   0.61370   1.000
    O71     O    0.99313   0.23804   0.63986   1.000
    N72     N    0.01994   0.77041   0.76002   1.000
    O73     O    0.04989   0.79529   0.64311   1.000
    O74     O    0.96096   0.74175   0.82896   1.000
    O75     O    0.95596   0.77684   0.69573   1.000
    O76     O    0.05394   0.74079   0.88554   1.000
    O77     O    0.99442   0.73794   0.85893   1.000
    N78     N    0.98259   0.72949   0.26071   1.000
    O79     O    0.94815   0.75914   0.38622   1.000
    O80     O    0.00771   0.76201   0.36009   1.000
    O81     O    0.95224   0.70561   0.14270   1.000
    O82     O    0.04583   0.72328   0.19627   1.000
    O83     O    0.04088   0.75824   0.33001   1.000
    N84     N    0.26108   0.00569   0.49285   1.000
    O85     O    0.35897   0.97944   0.50562   1.000
    O86     O    0.20102   0.93653   0.47810   1.000
    O87     O    0.30471   0.12886   0.50558   1.000
    O88     O    0.20673   0.07429   0.46640   1.000
    O89     O    0.35946   0.02709   0.50568   1.000
    O90     O    0.29616   0.88560   0.52979   1.000
    N91     N    0.48119   0.26994   0.23987   1.000
    O92     O    0.54045   0.24159   0.17085   1.000
    O93     O    0.54452   0.27641   0.30426   1.000
    O94     O    0.45059   0.29422   0.35758   1.000
    O95     O    0.44742   0.24051   0.11432   1.000
    O96     O    0.50708   0.23766   0.14085   1.000
    N97     N    0.26062   0.50559   0.00631   1.000
    O98     O    0.35902   0.52702   0.99381   1.000
    O99     O    0.20050   0.43643   0.02122   1.000
    O100    O    0.30440   0.62876   0.99409   1.000
    O101    O    0.29584   0.38550   0.96948   1.000
    O102    O    0.35850   0.47936   0.99390   1.000
    O103    O    0.20641   0.57425   0.03302   1.000
    N104    N    0.76112   0.49459   0.49353   1.000
    O105    O    0.70634   0.42579   0.46705   1.000
    O106    O    0.85880   0.52080   0.50599   1.000
    O107    O    0.79595   0.61462   0.53044   1.000
    O108    O    0.85894   0.47346   0.50689   1.000
    O109    O    0.80559   0.37139   0.50521   1.000
    O110    O    0.70141   0.56367   0.47795   1.000
    N111    N    0.73996   0.99442   0.50614   1.000
    O112    O    0.64195   0.97300   0.49311   1.000
    O113    O    0.70454   0.11453   0.46944   1.000
    O114    O    0.79410   0.92578   0.53277   1.000
    O115    O    0.69586   0.87124   0.49389   1.000
    O116    O    0.64232   0.02060   0.49376   1.000
    O117    O    0.79993   0.06356   0.52104   1.000
    N118    N    0.51895   0.73004   0.75997   1.000
    O119    O    0.45969   0.75837   0.82899   1.000
    O120    O    0.45558   0.72358   0.69561   1.000
    O121    O    0.54949   0.70583   0.64225   1.000
    O122    O    0.55273   0.75947   0.88552   1.000
    O123    O    0.49308   0.76232   0.85897   1.000
loop_
    _geom_bond_atom_site_label_1
    _geom_bond_atom_site_label_2
    _geom_bond_distance
    _geom_bond_site_symmetry_2
    _ccdc_geom_bond_type
    N20    O21       1.45096  1_564   S
    Zr18   O21       2.02762  1_465   S
    N20    O22       1.43670  1_554   S
    Zr18   O22       2.04105  1_455   S
    N20    O23       1.35387      .   S
    Zr5    O23       2.35235      .   S
    N20    O24       1.96018  1_554   S
    Zr6    O24       2.93305      .   S
    N20    O25       1.36020  1_565   S
    Zr4    O25       2.36311      .   S
    N20    O26       1.94993  1_564   S
    Zr7    O26       2.94598      .   S
    N27    O28       1.33892      .   S
    Zr5    O28       2.30804      .   S
    N27    O29       1.89423      .   S
    Zr12   O29       2.94083  1_556   S
    N27    O30       2.03742      .   S
    Zr1    O30       3.01271      .   S
    N27    O31       1.63915      .   S
    Zr8    O31       2.25038      .   S
    N27    O32       1.41803      .   S
    Zr8    O32       2.36699      .   S
    N33    O34       1.41760      .   S
    Zr0    O34       2.36693      .   S
    N33    O35       1.33985      .   S
    Zr13   O35       2.31033      .   S
    N33    O36       2.03653      .   S
    Zr9    O36       3.01055      .   S
    N33    O37       1.63920      .   S
    Zr0    O37       2.24979      .   S
    N33    O38       1.89489      .   S
    Zr4    O38       2.94099  1_554   S
    N39    O40       1.43720      .   S
    Zr16   O40       2.04213      .   S
    N39    O41       1.95000      .   S
    Zr3    O41       2.94442      .   S
    N39    O42       1.45160      .   S
    Zr16   O42       2.02892      .   S
    N39    O43       1.96153      .   S
    Zr2    O43       2.93568      .   S
    N39    O44       1.35922      .   S
    Zr0    O44       2.36091      .   S
    N39    O45       1.35269      .   S
    Zr1    O45       2.35056      .   S
    N46    O47       1.45191  1_546   S
    Zr18   O47       2.02896  1_556   S
    N46    O48       1.96061  1_556   S
    Zr14   O48       2.93358      .   S
    N46    O49       1.35892  1_545   S
    Zr12   O49       2.36110      .   S
    N46    O50       1.95068  1_546   S
    Zr15   O50       2.94734      .   S
    N46    O51       1.43763  1_556   S
    Zr18   O51       2.04231  1_566   S
    N46    O52       1.35273      .   S
    Zr13   O52       2.35108      .   S
    N53    O54       1.45248  1_556   S
    Zr19   O54       2.03183  1_556   S
    N53    O55       1.95383  1_556   S
    Zr5    O55       2.95202      .   S
    N53    O56       1.44135  1_556   S
    Zr19   O56       2.04258  1_556   S
    N53    O57       1.34716      .   S
    Zr7    O57       2.34174      .   S
    N53    O58       1.36163      .   S
    Zr6    O58       2.36575      .   S
    N53    O59       1.95931  1_556   S
    Zr4    O59       2.93362      .   S
    N60    O61       1.88749      .   S
    Zr10   O61       2.92476      .   S
    N60    O62       1.41609  1_655   S
    Zr14   O62       2.36763      .   S
    N60    O63       1.34016  1_655   S
    Zr3    O63       2.31585      .   S
    N60    O64       2.03801      .   S
    Zr7    O64       3.01563  1_556   S
    N60    O65       1.63790  1_655   S
    Zr14   O65       2.25011      .   S
    N66    O67       1.34174  1_455   S
    Zr7    O67       2.31620      .   S
    N66    O68       1.41637  1_455   S
    Zr10   O68       2.36754      .   S
    N66    O69       1.88880      .   S
    Zr14   O69       2.92328  1_554   S
    N66    O70       2.03789      .   S
    Zr3    O70       3.01541      .   S
    N66    O71       1.64079  1_455   S
    Zr10   O71       2.24471      .   S
    N72    O73       1.88402      .   S
    Zr2    O73       2.91708      .   S
    N72    O74       1.41693  1_455   S
    Zr6    O74       2.36506      .   S
    N72    O75       1.34439  1_455   S
    Zr11   O75       2.31809      .   S
    N72    O76       2.03809      .   S
    Zr15   O76       3.01663  1_554   S
    N72    O77       1.63747  1_455   S
    Zr6    O77       2.24893      .   S
    N78    O79       2.03825      .   S
    Zr11   O79       3.01393      .   S
    N78    O80       1.64143  1_655   S
    Zr2    O80       2.23991      .   S
    N78    O81       1.89726      .   S
    Zr6    O81       2.94459  1_556   S
    N78    O82       1.33900  1_655   S
    Zr15   O82       2.31313      .   S
    N78    O83       1.41421  1_655   S
    Zr2    O83       2.36592      .   S
    N84    O85       1.45564  1_545   S
    Zr17   O85       2.03769      .   S
    N84    O86       1.36020  1_545   S
    Zr2    O86       2.36430      .   S
    N84    O87       1.95730      .   S
    Zr0    O87       2.92946      .   S
    N84    O88       1.34885      .   S
    Zr3    O88       2.34445      .   S
    N84    O89       1.44399      .   S
    Zr17   O89       2.04901  1_565   S
    N84    O90       1.95425  1_545   S
    Zr1    O90       2.95310      .   S
    N91    O92       1.41793      .   S
    Zr4    O92       2.36685      .   S
    N91    O93       1.33915      .   S
    Zr9    O93       2.30830      .   S
    N91    O94       1.89513      .   S
    Zr0    O94       2.94421      .   S
    N91    O95       2.03533      .   S
    Zr13   O95       3.00956  1_556   S
    N91    O96       1.63791      .   S
    Zr4    O96       2.25168      .   S
    N97    O98       1.44386  1_554   S
    Zr19   O98       2.04847      .   S
    N97    O99       1.36180      .   S
    Zr14   O99       2.36636      .   S
    N97    O100      1.95783  1_554   S
    Zr12   O100      2.93098      .   S
    N97    O101      1.95252  1_554   S
    Zr13   O101      2.95069      .   S
    N97    O102      1.45457  1_554   S
    Zr19   O102      2.03820      .   S
    N97    O103      1.34872      .   S
    Zr15   O103      2.34373      .   S
    N104   O105      1.35310      .   S
    Zr9    O105      2.35162      .   S
    N104   O106      1.45138      .   S
    Zr16   O106      2.02857  1_455   S
    N104   O107      1.94994      .   S
    Zr11   O107      2.94341      .   S
    N104   O108      1.43705      .   S
    Zr16   O108      2.04177  1_455   S
    N104   O109      1.96140      .   S
    Zr10   O109      2.93547      .   S
    N104   O110      1.35977      .   S
    Zr8    O110      2.36198      .   S
    N111   O112      1.43930      .   S
    Zr17   O112      2.04091      .   S
    N111   O113      1.95463  1_565   S
    Zr9    O113      2.95342      .   S
    N111   O114      1.34838      .   S
    Zr11   O114      2.34298      .   S
    N111   O115      1.95888      .   S
    Zr8    O115      2.93201      .   S
    N111   O116      1.45123  1_565   S
    Zr17   O116      2.02901  1_565   S
    N111   O117      1.35956  1_565   S
    Zr10   O117      2.36261      .   S
    N118   O119      1.41796      .   S
    Zr12   O119      2.36664      .   S
    N118   O120      1.33913      .   S
    Zr1    O120      2.30821      .   S
    N118   O121      1.89475      .   S
    Zr8    O121      2.94318      .   S
    N118   O122      2.03554      .   S
    Zr5    O122      3.01003  1_554   S
    N118   O123      1.63761      .   S
    Zr12   O123      2.25214      .   S
