# CIF file generated by openbabel 2.4.90, see http://openbabel.sf.net
data_I
_chemical_name_common ''
_cell_length_a 18.425
_cell_length_b 18.434
_cell_length_c 18.434
_cell_angle_alpha 60.137
_cell_angle_beta 60.147
_cell_angle_gamma 60.15
_space_group_name_H-M_alt 'P 1'
_space_group_name_Hall 'P 1'
loop_
    _symmetry_equiv_pos_as_xyz
    x,y,z
loop_
    _atom_site_label
    _atom_site_type_symbol
    _atom_site_fract_x
    _atom_site_fract_y
    _atom_site_fract_z
    _atom_site_occupancy
    N0      N    0.50001   0.50000   0.99999   1.000
    N1      N    0.00001   0.50000   0.49999   1.000
    N2      N    0.50001   1.00000   0.99999   1.000
    N3      N    0.00001   1.00000   0.49998   1.000
    N4      N    0.50001   1.00000   0.49998   1.000
    N5      N    0.00001   0.50000   0.99998   1.000
    Zr6     Zr   0.75002   0.74996   0.74995   1.000
    Zr7     Zr   0.25000   0.25003   0.25002   1.000
    O8      O    0.66746   0.66741   0.83246   1.000
    O9      O    0.33256   0.33259   0.16751   1.000
    O10     O    0.66748   0.83254   0.83253   1.000
    O11     O    0.83258   0.83253   0.66744   1.000
    O12     O    0.66746   0.83247   0.66739   1.000
    O13     O    0.83257   0.66745   0.83252   1.000
    O14     O    0.83254   0.66741   0.66739   1.000
    O15     O    0.33254   0.16746   0.16745   1.000
    O16     O    0.16745   0.16747   0.33253   1.000
    O17     O    0.33256   0.16752   0.33258   1.000
    O18     O    0.16745   0.33254   0.16745   1.000
    O19     O    0.16749   0.33259   0.33259   1.000
loop_
    _geom_bond_atom_site_label_1
    _geom_bond_atom_site_label_2
    _geom_bond_distance
    _geom_bond_site_symmetry_2
    _ccdc_geom_bond_type
    N0     O8        4.36822      .   S
    Zr6    O8        2.15386      .   S
    N0     O9        4.36822  1_556   S
    Zr7    O9        2.15385      .   S
    Zr6    O10       2.15534      .   S
    N2     O10       4.37094      .   S
    Zr6    O11       2.15396      .   S
    N3     O11       4.36880  1_455   S
    Zr6    O12       2.15402      .   S
    N4     O12       4.36834      .   S
    Zr6    O13       2.15408      .   S
    N5     O13       4.36893  1_455   S
    Zr6    O14       2.15484      .   S
    N1     O14       4.36942  1_455   S
    N2     O15       4.37089  1_566   S
    Zr7    O15       2.15532      .   S
    N3     O16       4.36880  1_565   S
    Zr7    O16       2.15396      .   S
    Zr7    O17       2.15398      .   S
    N4     O17       4.36835  1_565   S
    Zr7    O18       2.15418      .   S
    N5     O18       4.36896  1_556   S
    Zr7    O19       2.15488      .   S
    N1     O19       4.36948      .   S
