# CIF file generated by openbabel 2.4.90, see http://openbabel.sf.net
data_I
_chemical_name_common ''
_cell_length_a 18.425
_cell_length_b 18.434
_cell_length_c 18.434
_cell_angle_alpha 60.137
_cell_angle_beta 60.147
_cell_angle_gamma 60.15
_space_group_name_H-M_alt 'P 1'
_space_group_name_Hall 'P 1'
loop_
    _symmetry_equiv_pos_as_xyz
    x,y,z
loop_
    _atom_site_label
    _atom_site_type_symbol
    _atom_site_fract_x
    _atom_site_fract_y
    _atom_site_fract_z
    _atom_site_occupancy
    N0      N    0.50001   0.50000   0.99999   1.000
    N1      N    0.00001   0.50000   0.49999   1.000
    N2      N    0.50001   1.00000   0.99999   1.000
    N3      N    0.00001   1.00000   0.49998   1.000
    N4      N    0.50001   1.00000   0.49998   1.000
    N5      N    0.00001   0.50000   0.99998   1.000
    Zr6     Zr   0.75002   0.74996   0.74995   1.000
    O7      O    0.83254   0.64884   0.68596   1.000
    O8      O    0.83254   0.64886   0.83248   1.000
    O9      O    0.68604   0.64883   0.83245   1.000
    O10     O    0.64888   0.68599   0.83246   1.000
    O11     O    0.64888   0.83247   0.68596   1.000
    O12     O    0.64889   0.83251   0.83249   1.000
    O13     O    0.83254   0.68597   0.64882   1.000
    O14     O    0.83254   0.83249   0.64884   1.000
    O15     O    0.68604   0.83248   0.64882   1.000
    O16     O    0.83261   0.83256   0.68604   1.000
    O17     O    0.83261   0.68605   0.83255   1.000
    O18     O    0.68608   0.83257   0.83256   1.000
    Zr19    Zr   0.25000   0.25003   0.25002   1.000
    O20     O    0.31398   0.35116   0.16751   1.000
    O21     O    0.16749   0.35116   0.31401   1.000
    O22     O    0.16748   0.35114   0.16749   1.000
    O23     O    0.16748   0.16750   0.35113   1.000
    O24     O    0.31398   0.16752   0.35115   1.000
    O25     O    0.16749   0.31402   0.35116   1.000
    O26     O    0.16741   0.16744   0.31393   1.000
    O27     O    0.16741   0.31395   0.16741   1.000
    O28     O    0.31394   0.16743   0.16741   1.000
    O29     O    0.35114   0.16749   0.16748   1.000
    O30     O    0.35114   0.16752   0.31400   1.000
    O31     O    0.35114   0.31401   0.16751   1.000
loop_
    _geom_bond_atom_site_label_1
    _geom_bond_atom_site_label_2
    _geom_bond_distance
    _geom_bond_site_symmetry_2
    _ccdc_geom_bond_type
    Zr6    O7        2.18196      .   S
    N1     O7        4.38288  1_455   S
    Zr6    O8        2.18132      .   S
    N5     O8        4.38221  1_455   S
    Zr6    O9        2.18108      .   S
    N0     O9        4.38163      .   S
    Zr6    O10       2.18096      .   S
    N0     O10       4.38172      .   S
    Zr6    O11       2.18115      .   S
    N4     O11       4.38180      .   S
    Zr6    O12       2.18250      .   S
    N2     O12       4.38427      .   S
    Zr6    O13       2.18199      .   S
    N1     O13       4.38286  1_455   S
    Zr6    O14       2.18122      .   S
    N3     O14       4.38208  1_455   S
    Zr6    O15       2.18120      .   S
    N4     O15       4.38180      .   S
    Zr6    O16       2.18111      .   S
    N3     O16       4.38249  1_455   S
    Zr6    O17       2.18124      .   S
    N5     O17       4.38260  1_455   S
    Zr6    O18       2.18250      .   S
    N2     O18       4.38453      .   S
    Zr19   O20       2.18108      .   S
    N0     O20       4.38163  1_556   S
    Zr19   O21       2.18200      .   S
    N1     O21       4.38293      .   S
    Zr19   O22       2.18137      .   S
    N5     O22       4.38230  1_556   S
    Zr19   O23       2.18122      .   S
    N3     O23       4.38208  1_565   S
    Zr19   O24       2.18121      .   S
    N4     O24       4.38176  1_565   S
    Zr19   O25       2.18203      .   S
    N1     O25       4.38292      .   S
    Zr19   O26       2.18112      .   S
    N3     O26       4.38249  1_565   S
    Zr19   O27       2.18141      .   S
    N5     O27       4.38258  1_556   S
    Zr19   O28       2.18251      .   S
    N2     O28       4.38446  1_566   S
    Zr19   O29       2.18246      .   S
    N2     O29       4.38424  1_566   S
    Zr19   O30       2.18108      .   S
    N4     O30       4.38184  1_565   S
    Zr19   O31       2.18096      .   S
    N0     O31       4.38172  1_556   S
