# CIF file generated by openbabel 2.4.90, see http://openbabel.sf.net
data_I
_chemical_name_common ''
_cell_length_a 18.425
_cell_length_b 18.434
_cell_length_c 18.434
_cell_angle_alpha 60.137
_cell_angle_beta 60.147
_cell_angle_gamma 60.15
_space_group_name_H-M_alt 'P 1'
_space_group_name_Hall 'P 1'
loop_
    _symmetry_equiv_pos_as_xyz
    x,y,z
loop_
    _atom_site_label
    _atom_site_type_symbol
    _atom_site_fract_x
    _atom_site_fract_y
    _atom_site_fract_z
    _atom_site_occupancy
    Zr0     Zr   0.20659   0.38046   0.20673   1.000
    Zr1     Zr   0.38048   0.20663   0.20663   1.000
    Zr2     Zr   0.20638   0.20635   0.20630   1.000
    Zr3     Zr   0.20659   0.20673   0.38047   1.000
    Zr4     Zr   0.61955   0.79337   0.79335   1.000
    Zr5     Zr   0.79343   0.61953   0.79325   1.000
    Zr6     Zr   0.79364   0.79364   0.79365   1.000
    Zr7     Zr   0.79343   0.79327   0.61950   1.000
    Zr8     Zr   0.24997   0.25000   0.24999   1.000
    Zr9     Zr   0.75006   0.75000   0.74999   1.000
    O10     O    0.31522   0.22831   0.22831   1.000
    O11     O    0.22828   0.31523   0.22836   1.000
    O12     O    0.77174   0.68477   0.77162   1.000
    O13     O    0.68480   0.77168   0.77167   1.000
    O14     O    0.22818   0.22818   0.22814   1.000
    O15     O    0.22828   0.22836   0.31523   1.000
    O16     O    0.77185   0.77182   0.77182   1.000
    O17     O    0.77174   0.77163   0.68474   1.000
    N18     N    0.50001   0.50000   0.99999   1.000
    O19     O    0.37796   0.45229   0.08500   1.000
    O20     O    0.62206   0.54771   0.91496   1.000
    O21     O    0.54774   0.62201   0.91497   1.000
    O22     O    0.45228   0.37799   0.08500   1.000
    N23     N    0.00001   0.50000   0.49999   1.000
    O24     O    0.08497   0.37801   0.45229   1.000
    O25     O    0.08497   0.45229   0.37800   1.000
    O26     O    0.91505   0.54771   0.62197   1.000
    O27     O    0.91505   0.62199   0.54769   1.000
    N28     N    0.50001   1.00000   0.99999   1.000
    O29     O    0.45227   0.08495   0.08494   1.000
    O30     O    0.37788   0.08482   0.08480   1.000
    O31     O    0.54775   0.91505   0.91504   1.000
    O32     O    0.62214   0.91518   0.91517   1.000
    N33     N    0.00001   1.00000   0.49998   1.000
    O34     O    0.91520   0.91516   0.62212   1.000
    O35     O    0.91506   0.91503   0.54774   1.000
    O36     O    0.08482   0.08484   0.37784   1.000
    O37     O    0.08497   0.08497   0.45223   1.000
    N38     N    0.50001   1.00000   0.49998   1.000
    O39     O    0.62206   0.91499   0.54769   1.000
    O40     O    0.45228   0.08502   0.37798   1.000
    O41     O    0.37796   0.08500   0.45228   1.000
    O42     O    0.54774   0.91498   0.62198   1.000
    N43     N    0.00001   0.50000   0.99998   1.000
    O44     O    0.08497   0.45224   0.08495   1.000
    O45     O    0.08483   0.37787   0.08479   1.000
    O46     O    0.91506   0.54776   0.91502   1.000
    O47     O    0.91520   0.62213   0.91516   1.000
loop_
    _geom_bond_atom_site_label_1
    _geom_bond_atom_site_label_2
    _geom_bond_distance
    _geom_bond_site_symmetry_2
    _ccdc_geom_bond_type
    Zr1    O10       0.98354      .   S
    Zr8    O10       0.98354      .   S
    Zr0    O11       0.98361      .   S
    Zr8    O11       0.98361      .   S
    Zr9    O12       0.98361      .   S
    Zr5    O12       0.98361      .   S
    Zr9    O13       0.98355      .   S
    Zr4    O13       0.98355      .   S
    Zr8    O14       0.98402      .   S
    Zr2    O14       0.98402      .   S
    Zr8    O15       0.98368      .   S
    Zr3    O15       0.98368      .   S
    Zr9    O16       0.98379      .   S
    Zr6    O16       0.98379      .   S
    Zr9    O17       0.98376      .   S
    Zr7    O17       0.98376      .   S
    N18    O19       2.31823  1_556   S
    Zr0    O19       3.30264      .   S
    N18    O20       2.31823      .   S
    Zr5    O20       3.30263      .   S
    N18    O21       2.31834      .   S
    Zr4    O21       3.30295      .   S
    N18    O22       2.31835  1_556   S
    Zr1    O22       3.30296      .   S
    N23    O24       2.31844      .   S
    Zr3    O24       3.30290      .   S
    N23    O25       2.31843      .   S
    Zr0    O25       3.30285      .   S
    N23    O26       2.31843  1_455   S
    Zr5    O26       3.30285      .   S
    N23    O27       2.31841  1_455   S
    Zr7    O27       3.30283      .   S
    N28    O29       2.31906  1_566   S
    Zr1    O29       3.30396      .   S
    N28    O30       2.31996  1_566   S
    Zr2    O30       3.30522      .   S
    N28    O31       2.31903      .   S
    Zr4    O31       3.30394      .   S
    N28    O32       2.32002      .   S
    Zr6    O32       3.30543      .   S
    N33    O34       2.31958  1_455   S
    Zr6    O34       3.30490      .   S
    N33    O35       2.31824  1_455   S
    Zr7    O35       3.30286      .   S
    N33    O36       2.31959  1_565   S
    Zr2    O36       3.30499      .   S
    N33    O37       2.31825  1_565   S
    Zr3    O37       3.30285      .   S
    N38    O39       2.31828      .   S
    Zr7    O39       3.30261      .   S
    N38    O40       2.31832  1_565   S
    Zr1    O40       3.30294      .   S
    N38    O41       2.31825  1_565   S
    Zr3    O41       3.30263      .   S
    N38    O42       2.31817      .   S
    Zr4    O42       3.30324      .   S
    N43    O44       2.31826  1_556   S
    Zr0    O44       3.30313      .   S
    N43    O45       2.31942  1_556   S
    Zr2    O45       3.30488      .   S
    N43    O46       2.31823  1_455   S
    Zr5    O46       3.30288      .   S
    N43    O47       2.31956  1_455   S
    Zr6    O47       3.30486      .   S
