# CIF file generated by openbabel 2.4.90, see http://openbabel.sf.net
data_I
_chemical_name_common ''
_cell_length_a 15.74
_cell_length_b 23.167
_cell_length_c 13.534
_cell_angle_alpha 90.001
_cell_angle_beta 90
_cell_angle_gamma 109.791
_space_group_name_H-M_alt 'P 1'
_space_group_name_Hall 'P 1'
loop_
    _symmetry_equiv_pos_as_xyz
    x,y,z
loop_
    _atom_site_label
    _atom_site_type_symbol
    _atom_site_fract_x
    _atom_site_fract_y
    _atom_site_fract_z
    _atom_site_occupancy
    Zr0     Zr   0.14260   0.15668   0.25000   1.000
    Zr1     Zr   0.14260   0.65669   0.25000   1.000
    Zr2     Zr   0.64260   0.15668   0.25000   1.000
    Zr3     Zr   0.64260   0.65669   0.25000   1.000
    Zr4     Zr   0.35742   0.34333   0.75000   1.000
    Zr5     Zr   0.35742   0.84334   0.75000   1.000
    Zr6     Zr   0.85742   0.34333   0.75000   1.000
    Zr7     Zr   0.85742   0.84334   0.75000   1.000
    Zr8     Zr   0.48594   0.34403   0.24999   1.000
    Zr9     Zr   0.48594   0.84404   0.24999   1.000
    Zr10    Zr   0.98594   0.34403   0.20000   1.000
    Zr11    Zr   0.98594   0.84404   0.24999   1.000
    Zr12    Zr   0.01409   0.15598   0.75000   1.000
    Zr13    Zr   0.01409   0.65599   0.75000   1.000
    Zr14    Zr   0.51408   0.15598   0.75000   1.000
    Zr15    Zr   0.51408   0.65599   0.75000   1.000
    Zr16    Zr   0.25001   1.00000   0.99999   1.000
    Zr17    Zr   0.25001   0.50001   0.99999   1.000
    Zr18    Zr   0.75001   1.00000   0.00000   1.000
    Zr19    Zr   0.75001   0.50001   0.00000   1.000
    Zr20    Zr   0.25001   0.00000   0.50000   1.000
    Zr21    Zr   0.25001   0.50001   0.50000   1.000
    Zr22    Zr   0.75001   0.00000   0.50000   1.000
    Zr23    Zr   0.75001   0.50001   0.50000   1.000
    N24     N    0.68609   0.09012   0.09532   1.000
    O25     O    0.67245   0.11073   0.14076   1.000
    O26     O    0.70483   0.06362   0.06471   1.000
    N27     N    0.39123   0.50036   0.25000   1.000
    O28     O    0.34210   0.50025   0.33526   1.000
    O29     O    0.34210   0.50025   0.16473   1.000
    N30     N    0.18609   0.59013   0.09531   1.000
    O31     O    0.17246   0.61074   0.14076   1.000
    O32     O    0.20483   0.56363   0.06470   1.000
    N33     N    0.40386   0.58968   0.59546   1.000
    O34     O    0.43817   0.61021   0.64085   1.000
    O35     O    0.35865   0.56330   0.56484   1.000
    N36     N    0.81096   0.76293   0.25000   1.000
    O37     O    0.86327   0.78831   0.25000   1.000
    O38     O    0.76029   0.73127   0.25000   1.000
    N39     N    0.89123   0.50036   0.24999   1.000
    O40     O    0.84210   0.50025   0.33525   1.000
    O41     O    0.84210   0.50025   0.16473   1.000
    N42     N    0.39123   0.00036   0.25000   1.000
    O43     O    0.34210   0.00025   0.16473   1.000
    O44     O    0.34210   0.00025   0.33526   1.000
    N45     N    0.10873   0.99966   0.75000   1.000
    O46     O    0.15789   0.99976   0.66474   1.000
    O47     O    0.15789   0.99976   0.83526   1.000
    N48     N    0.60879   0.49966   0.75000   1.000
    O49     O    0.65793   0.49977   0.83526   1.000
    O50     O    0.65793   0.49977   0.66474   1.000
    N51     N    0.59616   0.91035   0.40453   1.000
    O52     O    0.56185   0.88981   0.35914   1.000
    O53     O    0.64138   0.93672   0.43516   1.000
    N54     N    0.31393   0.40989   0.90464   1.000
    O55     O    0.32757   0.38928   0.85921   1.000
    O56     O    0.29519   0.43639   0.93524   1.000
    N57     N    0.68906   0.23709   0.75000   1.000
    O58     O    0.63675   0.21171   0.75000   1.000
    O59     O    0.73973   0.26875   0.75000   1.000
    N60     N    0.10873   0.49966   0.75000   1.000
    O61     O    0.15789   0.49977   0.83526   1.000
    O62     O    0.15789   0.49977   0.66474   1.000
    N63     N    0.31393   0.40989   0.59532   1.000
    O64     O    0.32757   0.38928   0.64076   1.000
    O65     O    0.29519   0.43639   0.56471   1.000
    N66     N    0.89123   0.00036   0.25000   1.000
    O67     O    0.84210   0.00025   0.33525   1.000
    O68     O    0.84210   0.00025   0.16474   1.000
    N69     N    0.68907   0.73710   0.75000   1.000
    O70     O    0.63675   0.71172   0.75000   1.000
    O71     O    0.73973   0.76876   0.75000   1.000
    N72     N    0.60879   0.99966   0.75000   1.000
    O73     O    0.65793   0.99976   0.83526   1.000
    O74     O    0.65793   0.99976   0.66474   1.000
    N75     N    0.68609   0.59013   0.40468   1.000
    O76     O    0.70483   0.56363   0.43528   1.000
    O77     O    0.67246   0.61074   0.35923   1.000
    N78     N    0.31393   0.90990   0.59532   1.000
    O79     O    0.32757   0.88929   0.64076   1.000
    O80     O    0.29519   0.93639   0.56471   1.000
    N81     N    0.54834   0.73774   0.22500   1.000
    O82     O    0.52921   0.76940   0.22500   1.000
    O83     O    0.57544   0.71240   0.23750   1.000
    N84     N    0.59616   0.41034   0.09545   1.000
    O85     O    0.64137   0.43672   0.06483   1.000
    O86     O    0.56185   0.38980   0.14084   1.000
    N87     N    0.18907   0.23709   0.75000   1.000
    O88     O    0.23973   0.26875   0.75000   1.000
    O89     O    0.13675   0.21171   0.75000   1.000
    N90     N    0.59616   0.91035   0.09545   1.000
    O91     O    0.56185   0.88981   0.14084   1.000
    O92     O    0.64137   0.93672   0.06483   1.000
    N93     N    0.40386   0.58968   0.90454   1.000
    O94     O    0.35865   0.56330   0.93516   1.000
    O95     O    0.43817   0.61022   0.85915   1.000
    N96     N    0.09616   0.91035   0.40453   1.000
    O97     O    0.06185   0.88981   0.35914   1.000
    O98     O    0.14138   0.93672   0.43516   1.000
    N99     N    0.31096   0.26292   0.25000   1.000
    O100    O    0.36328   0.28830   0.25000   1.000
    O101    O    0.26030   0.23126   0.25000   1.000
    N102    N    0.18609   0.59013   0.40468   1.000
    O103    O    0.20483   0.56363   0.43528   1.000
    O104    O    0.17246   0.61074   0.35923   1.000
    N105    N    0.18907   0.73710   0.75000   1.000
    O106    O    0.23973   0.76876   0.75000   1.000
    O107    O    0.13675   0.71172   0.75000   1.000
    N108    N    0.90386   0.58968   0.59546   1.000
    O109    O    0.93817   0.61022   0.64085   1.000
    O110    O    0.85865   0.56330   0.56484   1.000
    N111    N    0.81393   0.40989   0.90468   1.000
    O112    O    0.79519   0.43639   0.93529   1.000
    O113    O    0.82757   0.38928   0.85924   1.000
    N114    N    0.40386   0.08967   0.90454   1.000
    O115    O    0.35865   0.06329   0.93516   1.000
    O116    O    0.43817   0.11021   0.85915   1.000
    N117    N    0.68609   0.59013   0.09532   1.000
    O118    O    0.70483   0.56363   0.06471   1.000
    O119    O    0.67246   0.61074   0.14076   1.000
    N120    N    0.68609   0.09012   0.40468   1.000
    O121    O    0.70483   0.06362   0.43528   1.000
    O122    O    0.67246   0.11073   0.35923   1.000
    N123    N    0.90386   0.08967   0.90454   1.000
    O124    O    0.85865   0.06329   0.93516   1.000
    O125    O    0.93817   0.11021   0.85915   1.000
    N126    N    0.09616   0.41034   0.40453   1.000
    O127    O    0.14138   0.43672   0.43516   1.000
    N128    N    0.81096   0.26292   0.25000   1.000
    O129    O    0.76029   0.23126   0.25000   1.000
    O130    O    0.86327   0.28830   0.23750   1.000
    N131    N    0.31096   0.76293   0.25000   1.000
    O132    O    0.26030   0.73127   0.25000   1.000
    O133    O    0.36328   0.78831   0.25000   1.000
    N134    N    0.40386   0.08967   0.59546   1.000
    O135    O    0.35865   0.06329   0.56484   1.000
    O136    O    0.43817   0.11021   0.64085   1.000
    N137    N    0.81393   0.90990   0.90468   1.000
    O138    O    0.79519   0.93639   0.93529   1.000
    O139    O    0.82757   0.88929   0.85924   1.000
    N140    N    0.09616   0.41034   0.09545   1.000
    O141    O    0.14137   0.43672   0.06483   1.000
    O142    O    0.06185   0.38980   0.12835   1.000
    N143    N    0.04835   0.73774   0.22500   1.000
    O144    O    0.07544   0.71240   0.23750   1.000
    O145    O    0.02921   0.76940   0.22500   1.000
    N146    N    0.81393   0.90990   0.59532   1.000
    O147    O    0.82757   0.88929   0.64076   1.000
    O148    O    0.79519   0.93639   0.56471   1.000
    N149    N    0.59616   0.41034   0.40453   1.000
    O150    O    0.56185   0.38981   0.35914   1.000
    O151    O    0.64138   0.43672   0.43516   1.000
    N152    N    0.18609   0.09012   0.40468   1.000
    O153    O    0.20483   0.06362   0.43528   1.000
    O154    O    0.17246   0.11073   0.35923   1.000
    N155    N    0.31393   0.90990   0.90464   1.000
    O156    O    0.29519   0.93640   0.93524   1.000
    O157    O    0.32757   0.88929   0.85921   1.000
    N158    N    0.90387   0.58968   0.90454   1.000
    O159    O    0.85865   0.56330   0.93516   1.000
    O160    O    0.93817   0.61022   0.85915   1.000
    N161    N    0.04835   0.23774   0.22500   1.000
    O162    O    0.07544   0.21239   0.23750   1.000
    O163    O    0.02921   0.26939   0.21250   1.000
    N164    N    0.95168   0.76229   0.75000   1.000
    O165    O    0.97081   0.73063   0.75000   1.000
    O166    O    0.92458   0.78763   0.75000   1.000
    N167    N    0.09616   0.91035   0.09545   1.000
    O168    O    0.14137   0.93672   0.06483   1.000
    O169    O    0.06185   0.88981   0.14084   1.000
    N170    N    0.90386   0.08967   0.59542   1.000
    O171    O    0.85865   0.06329   0.56482   1.000
    O172    O    0.93817   0.11021   0.64081   1.000
    N173    N    0.81393   0.40989   0.59532   1.000
    O174    O    0.79519   0.43639   0.56471   1.000
    O175    O    0.82757   0.38928   0.64076   1.000
    N176    N    0.45168   0.76229   0.75000   1.000
    O177    O    0.47081   0.73063   0.75000   1.000
    O178    O    0.42458   0.78763   0.75000   1.000
    N179    N    0.18609   0.09012   0.09531   1.000
    O180    O    0.20483   0.06362   0.06470   1.000
    O181    O    0.17246   0.11073   0.14076   1.000
    N182    N    0.54834   0.23774   0.22500   1.000
    O183    O    0.57544   0.21239   0.23750   1.000
    O184    O    0.52921   0.26939   0.22500   1.000
    N185    N    0.45168   0.26228   0.75000   1.000
    O186    O    0.42458   0.28762   0.75000   1.000
    O187    O    0.47081   0.23062   0.75000   1.000
    N188    N    0.95168   0.26228   0.75000   1.000
    O189    O    0.97081   0.23062   0.75000   1.000
    O190    O    0.92458   0.28762   0.75000   1.000
loop_
    _geom_bond_atom_site_label_1
    _geom_bond_atom_site_label_2
    _geom_bond_distance
    _geom_bond_site_symmetry_2
    _ccdc_geom_bond_type
    N24    O25       0.84955      .   S
    Zr2    O25       1.96932      .   S
    N24    O26       0.87074      .   S
    Zr18   O26       2.03833  1_565   S
    N27    O28       1.38865      .   S
    Zr21   O28       2.65827      .   S
    N27    O29       1.38866      .   S
    Zr17   O29       2.65834  1_556   S
    N30    O31       0.84960      .   S
    Zr1    O31       1.96938      .   S
    N30    O32       0.87076      .   S
    Zr17   O32       2.03831  1_556   S
    N33    O34       0.84933      .   S
    Zr15   O34       1.96879      .   S
    N33    O35       0.87016      .   S
    Zr21   O35       2.03620      .   S
    N36    O37       0.83423      .   S
    Zr11   O37       1.92526      .   S
    N36    O38       0.88193      .   S
    Zr3    O38       2.06146      .   S
    N39    O40       1.38855      .   S
    Zr23   O40       2.65845      .   S
    N39    O41       1.38862      .   S
    Zr19   O41       2.65824      .   S
    N42    O43       1.38864      .   S
    Zr16   O43       2.65831  1_566   S
    N42    O44       1.38865      .   S
    Zr20   O44       2.65827      .   S
    N45    O46       1.38893      .   S
    Zr20   O46       2.65854  1_545   S
    N45    O47       1.38891      .   S
    Zr16   O47       2.65846      .   S
    N48    O49       1.38865      .   S
    Zr19   O49       2.65826  1_554   S
    N48    O50       1.38864      .   S
    Zr23   O50       2.65825      .   S
    N51    O52       0.84935      .   S
    Zr9    O52       1.96886      .   S
    N51    O53       0.87011      .   S
    Zr22   O53       2.03606  1_545   S
    N54    O55       0.84935      .   S
    Zr4    O55       1.96911      .   S
    N54    O56       0.87071      .   S
    Zr17   O56       2.03848      .   S
    N57    O58       0.83423      .   S
    Zr14   O58       1.92525      .   S
    N57    O59       0.88193      .   S
    Zr6    O59       2.06146      .   S
    N60    O61       1.38890      .   S
    Zr17   O61       2.65846      .   S
    N60    O62       1.38890      .   S
    Zr21   O62       2.65851      .   S
    N63    O64       0.84955      .   S
    Zr4    O64       1.96933      .   S
    N63    O65       0.87075      .   S
    Zr21   O65       2.03835      .   S
    N66    O67       1.38852      .   S
    Zr22   O67       2.65842      .   S
    N66    O68       1.38861      .   S
    Zr18   O68       2.65823  1_565   S
    N69    O70       0.83423      .   S
    Zr15   O70       1.92526      .   S
    N69    O71       0.88193      .   S
    Zr7    O71       2.06147      .   S
    N72    O73       1.38867      .   S
    Zr18   O73       2.65829  1_554   S
    N72    O74       1.38864      .   S
    Zr22   O74       2.65826  1_545   S
    N75    O76       0.87075      .   S
    Zr23   O76       2.03835      .   S
    N75    O77       0.84956      .   S
    Zr3    O77       1.96933      .   S
    N78    O79       0.84955      .   S
    Zr5    O79       1.96933      .   S
    N78    O80       0.87067      .   S
    Zr20   O80       2.03810  1_545   S
    N81    O82       0.88206      .   S
    Zr9    O82       2.08953      .   S
    N81    O83       0.85138      .   S
    Zr3    O83       1.93284      .   S
    N84    O85       0.87015      .   S
    Zr19   O85       2.03617      .   S
    N84    O86       0.84933      .   S
    Zr8    O86       1.96880      .   S
    N87    O88       0.88193      .   S
    Zr4    O88       2.06146      .   S
    N87    O89       0.83423      .   S
    Zr12   O89       1.92527      .   S
    N90    O91       0.84933      .   S
    Zr9    O91       1.96880      .   S
    N90    O92       0.87010      .   S
    Zr18   O92       2.03604      .   S
    N93    O94       0.87015      .   S
    Zr17   O94       2.03618      .   S
    N93    O95       0.84936      .   S
    Zr15   O95       1.96888      .   S
    N96    O97       0.84935      .   S
    Zr11   O97       1.96887  1_655   S
    N96    O98       0.87011      .   S
    Zr20   O98       2.03606  1_545   S
    N99    O100      0.83423      .   S
    Zr8    O100      1.92526      .   S
    N99    O101      0.88193      .   S
    Zr0    O101      2.06146      .   S
    N102   O103      0.87075      .   S
    Zr21   O103      2.03834      .   S
    N102   O104      0.84956      .   S
    Zr1    O104      1.96934      .   S
    N105   O106      0.88193      .   S
    Zr5    O106      2.06146      .   S
    N105   O107      0.83423      .   S
    Zr13   O107      1.92526      .   S
    N108   O109      0.84933      .   S
    Zr13   O109      1.96880  1_455   S
    N108   O110      0.87016      .   S
    Zr23   O110      2.03620      .   S
    N111   O112      0.87072      .   S
    Zr19   O112      2.03825  1_554   S
    N111   O113      0.84957      .   S
    Zr6    O113      1.96933      .   S
    N114   O115      0.87015      .   S
    Zr16   O115      2.03618  1_565   S
    N114   O116      0.84936      .   S
    Zr14   O116      1.96888      .   S
    N117   O118      0.87074      .   S
    Zr19   O118      2.03832      .   S
    N117   O119      0.84955      .   S
    Zr3    O119      1.96932      .   S
    N120   O121      0.87075      .   S
    Zr22   O121      2.03835      .   S
    N120   O122      0.84956      .   S
    Zr2    O122      1.96934      .   S
    N123   O124      0.87016      .   S
    Zr18   O124      2.03622  1_564   S
    N123   O125      0.84936      .   S
    Zr12   O125      1.96889  1_455   S
    N126   O127      0.87015      .   S
    Zr21   O127      2.03620      .   S
    N128   O129      0.88193      .   S
    Zr2    O129      2.06146      .   S
    N128   O130      0.85122      .   S
    Zr10   O130      1.99105      .   S
    N131   O132      0.88193      .   S
    Zr1    O132      2.06146      .   S
    N131   O133      0.83423      .   S
    Zr9    O133      1.92527      .   S
    N134   O135      0.87016      .   S
    Zr20   O135      2.03620      .   S
    N134   O136      0.84933      .   S
    Zr14   O136      1.96879      .   S
    N137   O138      0.87064      .   S
    Zr18   O138      2.03800  1_554   S
    N137   O139      0.84957      .   S
    Zr7    O139      1.96933      .   S
    N140   O141      0.87017      .   S
    Zr17   O141      2.03621  1_556   S
    N140   O142      0.73632      .   S
    Zr10   O142      1.62313  1_655   S
    N143   O144      0.85137      .   S
    Zr1    O144      1.93282      .   S
    N143   O145      0.88206      .   S
    Zr11   O145      2.08953  1_655   S
    N146   O147      0.84955      .   S
    Zr7    O147      1.96932      .   S
    N146   O148      0.87067      .   S
    Zr22   O148      2.03810  1_545   S
    N149   O150      0.84935      .   S
    Zr8    O150      1.96887      .   S
    N149   O151      0.87015      .   S
    Zr23   O151      2.03619      .   S
    N152   O153      0.87075      .   S
    Zr20   O153      2.03835      .   S
    N152   O154      0.84955      .   S
    Zr0    O154      1.96933      .   S
    N155   O156      0.87063      .   S
    Zr16   O156      2.03822      .   S
    N155   O157      0.84935      .   S
    Zr5    O157      1.96912      .   S
    N158   O159      0.87017      .   S
    Zr19   O159      2.03623  1_554   S
    N158   O160      0.84936      .   S
    Zr13   O160      1.96888  1_455   S
    N161   O162      0.85137      .   S
    Zr0    O162      1.93284      .   S
    N161   O163      0.89815      .   S
    Zr10   O163      2.06892  1_655   S
    N164   O165      0.88206      .   S
    Zr13   O165      2.06198  1_455   S
    N164   O166      0.83439      .   S
    Zr7    O166      1.92541      .   S
    N167   O168      0.87012      .   S
    Zr16   O168      2.03608  1_556   S
    N167   O169      0.84933      .   S
    Zr11   O169      1.96881  1_655   S
    N170   O171      0.87001      .   S
    Zr22   O171      2.03607      .   S
    N170   O172      0.84933      .   S
    Zr12   O172      1.96926  1_455   S
    N173   O174      0.87075      .   S
    Zr23   O174      2.03835      .   S
    N173   O175      0.84955      .   S
    Zr6    O175      1.96932      .   S
    N176   O177      0.88206      .   S
    Zr15   O177      2.06198      .   S
    N176   O178      0.83439      .   S
    Zr5    O178      1.92540      .   S
    N179   O180      0.87076      .   S
    Zr16   O180      2.03832  1_566   S
    N179   O181      0.84959      .   S
    Zr0    O181      1.96937      .   S
    N182   O183      0.85138      .   S
    Zr2    O183      1.93284      .   S
    N182   O184      0.88206      .   S
    Zr8    O184      2.08951      .   S
    N185   O186      0.83439      .   S
    Zr4    O186      1.92541      .   S
    N185   O187      0.88206      .   S
    Zr14   O187      2.06196      .   S
    N188   O189      0.88206      .   S
    Zr12   O189      2.06199  1_455   S
    N188   O190      0.83439      .   S
    Zr6    O190      1.92542      .   S
