# CIF file generated by openbabel 2.4.90, see http://openbabel.sf.net
data_I
_chemical_name_common ''
_cell_length_a 14.297
_cell_length_b 18.902
_cell_length_c 18.901
_cell_angle_alpha 66.133
_cell_angle_beta 75.395
_cell_angle_gamma 104.605
_space_group_name_H-M_alt 'P 1'
_space_group_name_Hall 'P 1'
loop_
    _symmetry_equiv_pos_as_xyz
    x,y,z
loop_
    _atom_site_label
    _atom_site_type_symbol
    _atom_site_fract_x
    _atom_site_fract_y
    _atom_site_fract_z
    _atom_site_occupancy
    Cu0     Cu   0.52638   0.97703   0.44904   1.000
    Cu1     Cu   0.97554   0.44906   0.57381   1.000
    Cu2     Cu   0.45057   0.42619   0.02291   1.000
    Cu3     Cu   0.47379   0.02296   0.55080   1.000
    Cu4     Cu   0.02447   0.55089   0.42616   1.000
    H5      H    0.25203   0.54369   0.61359   1.000
    H6      H    0.53995   0.76776   0.48070   1.000
    H7      H    0.49864   0.81554   0.35376   1.000
    H8      H    0.33182   0.72794   0.35763   1.000
    H9      H    0.36964   0.49286   0.66760   1.000
    H10     H    0.39825   0.44706   0.80084   1.000
    H11     H    0.50908   0.70349   0.74906   1.000
    H12     H    0.47719   0.74954   0.61727   1.000
    H13     H    0.86561   0.61364   0.84260   1.000
    H14     H    0.02086   0.48077   0.75158   1.000
    H15     H    0.85257   0.35386   0.83057   1.000
    H16     H    0.68948   0.35774   0.91408   1.000
    H17     H    0.03742   0.66765   0.83950   1.000
    H18     H    0.19947   0.80074   0.75210   1.000
    H19     H    0.25837   0.74901   0.54750   1.000
    H20     H    0.09453   0.61732   0.63317   1.000
    H21     H    0.70839   0.84256   0.54367   1.000
    H22     H    0.77224   0.75149   0.76776   1.000
    H23     H    0.68311   0.83070   0.81547   1.000
    H24     H    0.60386   0.91434   0.72785   1.000
    H25     H    0.87706   0.83967   0.49285   1.000
    H26     H    0.95164   0.75236   0.44693   1.000
    H27     H    0.80599   0.54754   0.70329   1.000
    H28     H    0.72791   0.63316   0.74947   1.000
    H29     H    0.74796   0.45627   0.38645   1.000
    H30     H    0.46005   0.23221   0.51927   1.000
    H31     H    0.50134   0.18439   0.64620   1.000
    Cu32    Cu   0.54950   0.57381   0.97706   1.000
    H33     H    0.66814   0.27196   0.64239   1.000
    H34     H    0.63037   0.50712   0.33242   1.000
    H35     H    0.60179   0.55294   0.19917   1.000
    H36     H    0.49100   0.29653   0.25089   1.000
    H37     H    0.52285   0.25045   0.38270   1.000
    H38     H    0.13442   0.38640   0.15732   1.000
    H39     H    0.97928   0.51933   0.24834   1.000
    H40     H    0.14761   0.64621   0.16934   1.000
    H41     H    0.31066   0.64227   0.08585   1.000
    H42     H    0.96277   0.33245   0.16030   1.000
    H43     H    0.80079   0.19930   0.24764   1.000
    H44     H    0.74166   0.25098   0.45236   1.000
    H45     H    0.90542   0.38272   0.36672   1.000
    H46     H    0.29166   0.15734   0.45635   1.000
    H47     H    0.22777   0.24845   0.23227   1.000
    H48     H    0.31693   0.16930   0.18450   1.000
    H49     H    0.39628   0.08569   0.27206   1.000
    H50     H    0.12294   0.16027   0.50700   1.000
    H51     H    0.04830   0.24759   0.55305   1.000
    H52     H    0.19392   0.45233   0.29660   1.000
    H53     H    0.27204   0.36670   0.25054   1.000
    C54     C    0.18049   0.58024   0.49008   1.000
    C55     C    0.28307   0.63016   0.48568   1.000
    C56     C    0.30781   0.60256   0.55653   1.000
    C57     C    0.39976   0.65176   0.55607   1.000
    C58     C    0.46802   0.72884   0.48208   1.000
    C59     C    0.44467   0.75574   0.41074   1.000
    C60     C    0.35223   0.70708   0.41218   1.000
    C61     C    0.42103   0.62443   0.63330   1.000
    C62     C    0.39872   0.53900   0.68598   1.000
    C63     C    0.41524   0.51313   0.76015   1.000
    C64     C    0.45519   0.57246   0.78314   1.000
    C65     C    0.47860   0.65788   0.73064   1.000
    C66     C    0.46141   0.68343   0.65673   1.000
    C67     C    0.47219   0.54513   0.86275   1.000
    C68     C    0.67058   0.49020   0.92939   1.000
    C69     C    0.76876   0.48576   0.88392   1.000
    C70     C    0.86436   0.55660   0.84076   1.000
    C71     C    0.95591   0.55614   0.79211   1.000
    C72     C    0.95023   0.48217   0.78900   1.000
    C73     C    0.85554   0.41083   0.83340   1.000
    C74     C    0.76445   0.41230   0.88046   1.000
    C75     C    0.05447   0.63332   0.74228   1.000
    C76     C    0.08490   0.68598   0.77506   1.000
    C77     C    0.17568   0.76009   0.72678   1.000
    C78     C    0.23863   0.78304   0.64448   1.000
    C79     C    0.20945   0.73060   0.61152   1.000
    C80     C    0.11828   0.65676   0.65985   1.000
    C81     C    0.33524   0.86264   0.59213   1.000
    C82     C    0.60028   0.92954   0.58021   1.000
    C83     C    0.65289   0.88399   0.63014   1.000
    C84     C    0.70527   0.84076   0.60254   1.000
    C85     C    0.74811   0.79212   0.65173   1.000
    C86     C    0.73918   0.78898   0.72885   1.000
    C87     C    0.68894   0.83346   0.75570   1.000
    C88     C    0.64516   0.88065   0.70702   1.000
    C89     C    0.79684   0.74229   0.62440   1.000
    C90     C    0.86000   0.77513   0.53890   1.000
    C91     C    0.90253   0.72692   0.51301   1.000
    C92     C    0.88312   0.64458   0.57229   1.000
    C93     C    0.82111   0.61158   0.65770   1.000
    C94     C    0.77825   0.65986   0.68334   1.000
    C95     C    0.92737   0.59228   0.54494   1.000
    C96     C    0.81949   0.41969   0.50995   1.000
    C97     C    0.71691   0.36977   0.51435   1.000
    C98     C    0.69218   0.39739   0.44300   1.000
    C99     C    0.60023   0.34822   0.44393   1.000
    C100    C    0.53198   0.27111   0.51790   1.000
    C101    C    0.55530   0.24420   0.58926   1.000
    C102    C    0.64774   0.29284   0.58784   1.000
    C103    C    0.57896   0.37554   0.36671   1.000
    C104    C    0.60133   0.46099   0.31402   1.000
    C105    C    0.58478   0.48686   0.23986   1.000
    C106    C    0.54487   0.42755   0.21680   1.000
    C107    C    0.52144   0.34213   0.26933   1.000
    C108    C    0.53866   0.31657   0.34323   1.000
    C109    C    0.52791   0.45488   0.13720   1.000
    C110    C    0.32949   0.50979   0.07057   1.000
    C111    C    0.23132   0.51427   0.11601   1.000
    C112    C    0.13571   0.44345   0.15910   1.000
    C113    C    0.04417   0.44393   0.20780   1.000
    C114    C    0.04988   0.51791   0.21090   1.000
    C115    C    0.14460   0.58922   0.16653   1.000
    C116    C    0.23567   0.58774   0.11947   1.000
    C117    C    0.94562   0.36673   0.25761   1.000
    C118    C    0.91523   0.31411   0.22479   1.000
    C119    C    0.82453   0.23994   0.27307   1.000
    C120    C    0.76152   0.21697   0.35537   1.000
    C121    C    0.79063   0.26940   0.38835   1.000
    C122    C    0.88173   0.34331   0.34002   1.000
    C123    C    0.66494   0.13736   0.40769   1.000
    C124    C    0.39988   0.07045   0.41970   1.000
    C125    C    0.34720   0.11597   0.36982   1.000
    C126    C    0.29479   0.15917   0.39746   1.000
    C127    C    0.25194   0.20781   0.34828   1.000
    C128    C    0.26081   0.21093   0.27117   1.000
    C129    C    0.31113   0.16653   0.24420   1.000
    C130    C    0.35496   0.11936   0.29292   1.000
    C131    C    0.20319   0.25762   0.37560   1.000
    C132    C    0.13995   0.22478   0.46107   1.000
    C133    C    0.09745   0.27302   0.48698   1.000
    C134    C    0.11683   0.35535   0.42767   1.000
    C135    C    0.17885   0.38832   0.34224   1.000
    C136    C    0.22168   0.34001   0.31666   1.000
    C137    C    0.07257   0.40765   0.45500   1.000
    O138    O    0.11704   0.51409   0.56109   1.000
    O139    O    0.16271   0.60830   0.42309   1.000
    O140    O    0.43274   0.46571   0.91536   1.000
    O141    O    0.52536   0.60338   0.87273   1.000
    O142    O    0.67828   0.56118   0.92464   1.000
    O143    O    0.58572   0.42328   0.96810   1.000
    O144    O    0.34874   0.91518   0.61900   1.000
    O145    O    0.39805   0.87271   0.52370   1.000
    O146    O    0.60284   0.92466   0.51410   1.000
    O147    O    0.55466   0.96863   0.60800   1.000
    O148    O    0.96773   0.61926   0.46549   1.000
    O149    O    0.92193   0.52390   0.60322   1.000
    O150    O    0.88293   0.48584   0.43890   1.000
    O151    O    0.83727   0.39163   0.57694   1.000
    O152    O    0.56706   0.53432   0.08472   1.000
    O153    O    0.47499   0.39662   0.12712   1.000
    O154    O    0.32183   0.43873   0.07555   1.000
    O155    O    0.41430   0.57676   0.03156   1.000
    O156    O    0.65138   0.08485   0.38078   1.000
    O157    O    0.60223   0.12721   0.47600   1.000
    O158    O    0.39751   0.07547   0.48572   1.000
    O159    O    0.44537   0.03127   0.39178   1.000
    O160    O    0.03228   0.38071   0.53445   1.000
    O161    O    0.07808   0.47607   0.39672   1.000
loop_
    _geom_bond_atom_site_label_1
    _geom_bond_atom_site_label_2
    _geom_bond_distance
    _geom_bond_site_symmetry_2
    _ccdc_geom_bond_type
    Cu2    O154      1.98032      .   S
    Cu2    O153      1.96678      .   S
    Cu2    O140      1.97080  1_554   S
    Cu2    O143      1.97476  1_554   S
    O155   C110      1.27915      .   S
    O155   Cu32      1.97419  1_554   S
    C110   O154      1.28191      .   S
    C110   C111      1.49173      .   S
    O152   C109      1.28166      .   S
    O152   Cu32      1.97078  1_554   S
    H41    C116      1.08842      .   S
    C111   C116      1.40322      .   S
    C111   C112      1.39906      .   S
    C116   C115      1.39350      .   S
    O153   C109      1.28215      .   S
    C109   C106      1.48577      .   S
    H38    C112      1.08798      .   S
    C112   C113      1.40199      .   S
    H42    C118      1.09057      .   S
    C115   H40       1.09039      .   S
    C115   C114      1.39500      .   S
    H48    C129      1.08891      .   S
    H35    C105      1.08894      .   S
    C113   C114      1.40601      .   S
    C113   C117      1.47757  1_455   S
    C114   H39       1.09042  1_455   S
    C106   C105      1.40380      .   S
    C106   C107      1.40268      .   S
    C118   C117      1.40710      .   S
    C118   C119      1.38965      .   S
    H47    C128      1.09031      .   S
    C105   C104      1.38951      .   S
    C129   C128      1.39557      .   S
    C129   C130      1.39420      .   S
    H43    C119      1.08887      .   S
    H53    C136      1.08975      .   S
    H36    C107      1.08817      .   S
    C117   C122      1.40608      .   S
    C107   C108      1.39003      .   S
    C128   C127      1.40614      .   S
    H49    C130      1.08845      .   S
    C119   C120      1.40336      .   S
    C130   C125      1.40313      .   S
    H52    C135      1.08852      .   S
    C104   H34       1.09055      .   S
    C104   C103      1.40714      .   S
    C136   C135      1.39005      .   S
    C136   C131      1.40578      .   S
    C122   H45       1.08977      .   S
    C122   C121      1.38995      .   S
    C135   C134      1.40246      .   S
    C108   C103      1.40600      .   S
    C108   H37       1.08985      .   S
    C127   C131      1.47705      .   S
    C127   C126      1.40159      .   S
    H7     C59       1.09035      .   S
    C120   C121      1.40244      .   S
    C120   C123      1.48604      .   S
    H8     C60       1.08834      .   S
    C103   C99       1.47732      .   S
    C125   C126      1.39899      .   S
    C125   C124      1.49160      .   S
    C131   C132      1.40762      .   S
    O156   C123      1.28164      .   S
    O156   Cu0       1.97087  1_545   S
    H29    C98       1.08489      .   S
    C121   H44       1.08820      .   S
    O159   C124      1.27909      .   S
    O159   Cu0       1.97409  1_545   S
    O161   Cu4       1.96620      .   S
    O161   C137      1.28217      .   S
    C126   H46       1.08864      .   S
    C123   O157      1.27932      .   S
    C59    C60       1.39352      .   S
    C59    C58       1.39495      .   S
    C60    C55       1.40334      .   S
    C124   O158      1.28192      .   S
    O139   Cu4       1.97405      .   S
    O139   C54       1.27903      .   S
    Cu4    O150      1.98108  1_455   S
    Cu4    O148      1.97047  1_455   S
    C134   C137      1.48612      .   S
    C134   C133      1.40335      .   S
    O150   C96       1.28237      .   S
    C98    C99       1.39691      .   S
    C98    C97       1.40715      .   S
    C99    C100      1.40603      .   S
    H26    C91       1.08888      .   S
    Cu0    O146      1.98133      .   S
    Cu0    O145      1.96577      .   S
    C137   O160      1.28186      .   S
    C132   C133      1.38966      .   S
    C132   H50       1.08953      .   S
    O148   C95       1.28179      .   S
    O157   Cu3       1.96595      .   S
    H6     C58       1.09031      .   S
    C58    C57       1.40599      .   S
    C55    C54       1.49180      .   S
    C55    C56       1.39891      .   S
    O158   Cu3       1.98051      .   S
    C133   H51       1.08887      .   S
    C54    O138      1.28205      .   S
    H25    C90       1.09031      .   S
    C96    C97       1.49175      .   S
    C96    O151      1.27901      .   S
    C91    C90       1.38916      .   S
    C91    C92       1.40330      .   S
    O146   C82       1.28190      .   S
    C97    C102      1.40334      .   S
    C100   H30       1.09034      .   S
    C100   C101      1.39505      .   S
    O145   C81       1.28236      .   S
    O160   Cu1       1.97047  1_455   S
    C90    C89       1.40781      .   S
    H21    C84       1.08852      .   S
    C95    C92       1.48612      .   S
    C95    O149      1.28223      .   S
    H19    C79       1.08821      .   S
    Cu3    O147      1.97253  1_545   S
    Cu3    O144      1.97091  1_545   S
    C57    C56       1.40153      .   S
    C57    C61       1.47747      .   S
    C56    H5        1.08855      .   S
    O138   Cu1       1.98069  1_455   S
    C92    C93       1.40202      .   S
    Cu1    O151      1.97400      .   S
    Cu1    O149      1.96612      .   S
    C82    O147      1.27721      .   S
    C82    C83       1.49159      .   S
    C102   C101      1.39353      .   S
    C102   H33       1.08830      .   S
    C101   H31       1.09017      .   S
    C81    O144      1.28162      .   S
    C81    C78       1.48604      .   S
    C84    C83       1.39895      .   S
    C84    C85       1.40153      .   S
    C79    C78       1.40250      .   S
    C79    C80       1.38996      .   S
    H12    C66       1.08981      .   S
    C89    C85       1.47737      .   S
    C89    C94       1.40593      .   S
    C83    C88       1.40317      .   S
    H20    C80       1.08996      .   S
    C61    C66       1.40598      .   S
    C61    C62       1.40712      .   S
    C78    C77       1.40321      .   S
    C85    C86       1.40601      .   S
    C66    C65       1.39006      .   S
    C93    C94       1.39036      .   S
    C93    H27       1.08837      .   S
    C80    C75       1.40596      .   S
    H9     C62       1.09056      .   S
    C94    H28       1.08981      .   S
    C62    C63       1.38949      .   S
    C88    H24       1.08843      .   S
    C88    C87       1.39348      .   S
    C77    H18       1.08760      .   S
    C77    C76       1.38963      .   S
    C86    C87       1.39503      .   S
    C86    H22       1.09034      .   S
    C65    H11       1.08822      .   S
    C65    C64       1.40253      .   S
    C75    C76       1.40718      .   S
    C75    C71       1.47755  1_455   S
    H14    C72       1.09044  1_455   S
    C87    H23       1.09023      .   S
    C63    C64       1.40331      .   S
    C63    H10       1.08892      .   S
    C76    H17       1.08960      .   S
    C64    C67       1.48621      .   S
    C72    C71       1.40602      .   S
    C72    C73       1.39498      .   S
    C71    C70       1.40142      .   S
    H15    C73       1.09038      .   S
    C73    C74       1.39358      .   S
    C70    H13       1.08852      .   S
    C70    C69       1.39902      .   S
    C67    O141      1.28219      .   S
    C67    O140      1.28169      .   S
    O141   Cu32      1.96691      .   S
    C74    C69       1.40316      .   S
    C74    H16       1.08841      .   S
    C69    C68       1.49174      .   S
    O142   C68       1.28192      .   S
    O142   Cu32      1.98023      .   S
    C68    O143      1.27927      .   S
    Cu32   Cu2       2.44379  1_556   S
    Cu0    Cu3       2.44322  1_565   S
    Cu1    Cu4       2.44375  1_655   S
