# CIF file generated by openbabel 2.4.90, see http://openbabel.sf.net
data_I
_chemical_name_common ''
_cell_length_a 14.297
_cell_length_b 18.902
_cell_length_c 18.901
_cell_angle_alpha 66.133
_cell_angle_beta 75.395
_cell_angle_gamma 104.605
_space_group_name_H-M_alt 'P 1'
_space_group_name_Hall 'P 1'
loop_
    _symmetry_equiv_pos_as_xyz
    x,y,z
loop_
    _atom_site_label
    _atom_site_type_symbol
    _atom_site_fract_x
    _atom_site_fract_y
    _atom_site_fract_z
    _atom_site_occupancy
    N0      N    0.99716   0.41033   0.23534   1.000
    N1      N    0.00295   0.58972   0.76454   1.000
    N2      N    0.41312   0.64572   0.58968   1.000
    N3      N    0.23243   0.23533   0.35432   1.000
    N4      N    0.58689   0.35425   0.41029   1.000
    N5      N    0.76758   0.76461   0.64565   1.000
    Zr6     Zr   0.50009   1.00000   0.49990   1.000
    O7      O    0.59859   0.91784   0.56266   1.000
    O8      O    0.32252   0.85314   0.59566   1.000
    O9      O    0.40154   0.08213   0.43722   1.000
    O10     O    0.67764   0.14687   0.40417   1.000
    Zr11    Zr   0.50004   0.50000   0.99998   1.000
    O12     O    0.46922   0.55113   0.85314   1.000
    O13     O    0.53084   0.44887   0.14681   1.000
    O14     O    0.31941   0.48059   0.08215   1.000
    O15     O    0.68067   0.51942   0.91779   1.000
    Zr16    Zr   0.99999   0.49997   0.49999   1.000
    O17     O    0.83877   0.43723   0.48060   1.000
    O18     O    0.91820   0.59575   0.55106   1.000
    O19     O    0.16122   0.56272   0.51939   1.000
    O20     O    0.08178   0.40419   0.44891   1.000
loop_
    _geom_bond_atom_site_label_1
    _geom_bond_atom_site_label_2
    _geom_bond_distance
    _geom_bond_site_symmetry_2
    _ccdc_geom_bond_type
    Zr6    O7        2.50119      .   S
    N5     O7        4.29549      .   S
    Zr6    O8        2.73678      .   S
    N1     O8        4.91598      .   S
    Zr6    O9        2.50118  1_565   S
    N3     O9        4.29592      .   S
    Zr6    O10       2.73676  1_565   S
    N0     O10       4.91598      .   S
    Zr11   O12       2.73697      .   S
    N2     O12       4.91631      .   S
    Zr11   O13       2.73692  1_556   S
    N4     O13       4.91620      .   S
    Zr11   O14       2.50083  1_556   S
    N0     O14       4.29525  1_655   S
    Zr11   O15       2.50093      .   S
    N1     O15       4.29567  1_455   S
    Zr16   O17       2.50053      .   S
    N4     O17       4.29492      .   S
    Zr16   O18       2.73656      .   S
    N5     O18       4.91567      .   S
    Zr16   O19       2.50074  1_655   S
    N2     O19       4.29506      .   S
    Zr16   O20       2.73672  1_655   S
    N3     O20       4.91595      .   S
