# CIF file generated by openbabel 2.4.90, see http://openbabel.sf.net
data_I
_chemical_name_common ''
_cell_length_a 17.267
_cell_length_b 17.302
_cell_length_c 17.294
_cell_angle_alpha 97.826
_cell_angle_beta 115.501
_cell_angle_gamma 115.506
_space_group_name_H-M_alt 'P 1'
_space_group_name_Hall 'P 1'
loop_
    _symmetry_equiv_pos_as_xyz
    x,y,z
loop_
    _atom_site_label
    _atom_site_type_symbol
    _atom_site_fract_x
    _atom_site_fract_y
    _atom_site_fract_z
    _atom_site_occupancy
    N0      N    0.58866   0.92592   0.77239   1.000
    N1      N    0.70260   0.90363   0.30889   1.000
    N2      N    0.29738   0.09634   0.69099   1.000
    N3      N    0.34546   0.66200   0.07374   1.000
    N4      N    0.84566   0.77195   0.68348   1.000
    N5      N    0.91219   0.68345   0.33863   1.000
    N6      N    0.90537   0.79926   0.09658   1.000
    N7      N    0.08774   0.31649   0.66126   1.000
    N8      N    0.20240   0.89354   0.79900   1.000
    N9      N    0.40556   0.30901   0.10634   1.000
    N10     N    0.59446   0.69101   0.89355   1.000
    N11     N    0.79759   0.10646   0.20096   1.000
    N12     N    0.65447   0.33800   0.92624   1.000
    N13     N    0.41131   0.07409   0.22753   1.000
    N14     N    0.15432   0.22805   0.31646   1.000
    N15     N    0.09458   0.20075   0.90332   1.000
    Zr16    Zr   0.15553   0.89847   0.01379   1.000
    O17     O    0.21635   0.80326   0.03044   1.000
    O18     O    0.04011   0.84879   0.90183   1.000
    O19     O    0.06139   0.85901   0.03094   1.000
    O20     O    0.23805   0.04831   0.04198   1.000
    Zr21    Zr   0.11608   0.01368   0.35886   1.000
    O22     O    0.05386   0.90170   0.36246   1.000
    O23     O    0.17250   0.03074   0.46992   1.000
    O24     O    0.99423   0.04192   0.30437   1.000
    O25     O    0.22762   0.03052   0.31432   1.000
    Zr26    Zr   0.88389   0.98632   0.64108   1.000
    O27     O    0.00573   0.95807   0.69559   1.000
    O28     O    0.94610   0.09826   0.63746   1.000
    O29     O    0.82746   0.96923   0.53000   1.000
    O30     O    0.77235   0.96949   0.68562   1.000
    Zr31    Zr   0.38382   0.74224   0.89793   1.000
    O32     O    0.32730   0.79690   0.85855   1.000
    O33     O    0.44641   0.80799   0.84861   1.000
    O34     O    0.27196   0.58638   0.80261   1.000
    O35     O    0.50571   0.80982   0.04794   1.000
    Zr36    Zr   0.84444   0.10154   0.98612   1.000
    O37     O    0.78361   0.19674   0.96950   1.000
    O38     O    0.76194   0.95170   0.95793   1.000
    O39     O    0.95986   0.15121   0.09810   1.000
    O40     O    0.93858   0.14101   0.96898   1.000
    Zr41    Zr   0.61612   0.25773   0.10195   1.000
    O42     O    0.72797   0.41358   0.19727   1.000
    O43     O    0.67265   0.20307   0.14135   1.000
    O44     O    0.55354   0.19200   0.15128   1.000
    O45     O    0.49425   0.19015   0.95195   1.000
    Zr46    Zr   0.65497   0.64104   0.25763   1.000
    O47     O    0.71600   0.68535   0.41351   1.000
    O48     O    0.73769   0.69568   0.19021   1.000
    O49     O    0.53967   0.63771   0.19179   1.000
    O50     O    0.56110   0.53003   0.20293   1.000
    Zr51    Zr   0.34499   0.35897   0.74228   1.000
    O52     O    0.26226   0.30433   0.80970   1.000
    O53     O    0.43887   0.46998   0.79698   1.000
    O54     O    0.46028   0.36229   0.80815   1.000
    O55     O    0.28397   0.31466   0.58641   1.000
loop_
    _geom_bond_atom_site_label_1
    _geom_bond_atom_site_label_2
    _geom_bond_distance
    _geom_bond_site_symmetry_2
    _ccdc_geom_bond_type
    Zr16   O17       2.29299      .   S
    N3     O17       3.90617      .   S
    Zr16   O18       1.79123  1_554   S
    N4     O18       3.34246  1_655   S
    Zr16   O19       1.64650      .   S
    N6     O19       3.18898  1_655   S
    Zr16   O20       2.20574  1_565   S
    N9     O20       3.81780      .   S
    Zr21   O22       1.79147  1_545   S
    N5     O22       3.34153  1_655   S
    Zr21   O23       1.64671      .   S
    N2     O23       3.18861      .   S
    Zr21   O24       2.20379  1_455   S
    N11    O24       3.81518      .   S
    Zr21   O25       2.28970      .   S
    N13    O25       3.90248      .   S
    Zr26   O27       2.20383  1_655   S
    N8     O27       3.81532      .   S
    Zr26   O28       1.79125  1_565   S
    N7     O28       3.34135  1_455   S
    Zr26   O29       1.64702      .   S
    N1     O29       3.18910      .   S
    Zr26   O30       2.28961      .   S
    N0     O30       3.90228      .   S
    Zr31   O32       1.64578      .   S
    N8     O32       3.18908      .   S
    Zr31   O33       1.78560      .   S
    N0     O33       3.33739      .   S
    Zr31   O34       2.29838      .   S
    N7     O34       3.91183      .   S
    Zr31   O35       2.20910  1_556   S
    N1     O35       3.82117      .   S
    Zr36   O37       2.29306      .   S
    N12    O37       3.90634      .   S
    Zr36   O38       2.20570  1_545   S
    N10    O38       3.81761      .   S
    Zr36   O39       1.79134  1_556   S
    N14    O39       3.34257  1_455   S
    Zr36   O40       1.64638      .   S
    N15    O40       3.18887  1_455   S
    Zr41   O42       2.29825      .   S
    N5     O42       3.91168      .   S
    Zr41   O43       1.64595      .   S
    N11    O43       3.18923      .   S
    Zr41   O44       1.78568      .   S
    N13    O44       3.33744      .   S
    Zr41   O45       2.20890  1_554   S
    N2     O45       3.82109      .   S
    Zr46   O47       2.29364      .   S
    N4     O47       3.90645      .   S
    Zr46   O48       2.20562      .   S
    N6     O48       3.81770      .   S
    Zr46   O49       1.78754      .   S
    N3     O49       3.33791      .   S
    Zr46   O50       1.64777      .   S
    N9     O50       3.19051      .   S
    Zr51   O52       2.20563      .   S
    N15    O52       3.81770      .   S
    Zr51   O53       1.64785      .   S
    N10    O53       3.19066      .   S
    Zr51   O54       1.78742      .   S
    N12    O54       3.33793      .   S
    Zr51   O55       2.29354      .   S
    N14    O55       3.90638      .   S
