# CIF file generated by openbabel 2.4.90, see http://openbabel.sf.net
data_I
_chemical_name_common ''
_cell_length_a 21.11
_cell_length_b 17.853
_cell_length_c 17.853
_cell_angle_alpha 119.977
_cell_angle_beta 89.995
_cell_angle_gamma 89.962
_space_group_name_H-M_alt 'P 1'
_space_group_name_Hall 'P 1'
loop_
    _symmetry_equiv_pos_as_xyz
    x,y,z
loop_
    _atom_site_label
    _atom_site_type_symbol
    _atom_site_fract_x
    _atom_site_fract_y
    _atom_site_fract_z
    _atom_site_occupancy
    H0      H    0.49389   0.47723   0.92913   1.000
    H1      H    0.99388   0.47728   0.92913   1.000
    H2      H    0.32727   0.45183   0.52264   1.000
    H3      H    0.82726   0.45188   0.52269   1.000
    H4      H    0.16051   0.07095   0.54814   1.000
    H5      H    0.66051   0.07095   0.54810   1.000
    H6      H    0.24385   0.52264   0.07078   1.000
    H7      H    0.74386   0.52265   0.07078   1.000
    H8      H    0.07724   0.54814   0.47718   1.000
    H9      H    0.57721   0.54814   0.47718   1.000
    H10     H    0.41060   0.92912   0.45189   1.000
    H11     H    0.91057   0.92913   0.45188   1.000
    N12     N    0.45089   0.50917   0.94575   1.000
    N13     N    0.95088   0.50921   0.94574   1.000
    N14     N    0.28429   0.43656   0.49073   1.000
    N15     N    0.78428   0.43661   0.49077   1.000
    N16     N    0.11755   0.05435   0.56352   1.000
    N17     N    0.61754   0.05436   0.56356   1.000
    N18     N    0.20088   0.49072   0.05418   1.000
    N19     N    0.70089   0.49071   0.05419   1.000
    N20     N    0.03424   0.56346   0.50910   1.000
    N21     N    0.53421   0.56344   0.50910   1.000
    N22     N    0.36762   0.94575   0.43655   1.000
    N23     N    0.86759   0.94577   0.43656   1.000
loop_
    _geom_bond_atom_site_label_1
    _geom_bond_atom_site_label_2
    _geom_bond_distance
    _geom_bond_site_symmetry_2
    _ccdc_geom_bond_type
    N18    H6        1.03313      .   S
    N19    H7        1.03312      .   S
    N22    H10       1.03314      .   S
    N23    H11       1.03308      .   S
    H9     N21       1.03311      .   S
    H8     N20       1.03306      .   S
    N14    H2        1.03314      .   S
    N15    H3        1.03314      .   S
    H5     N17       1.03371      .   S
    H4     N16       1.03310      .   S
    H1     N13       1.03312      .   S
    H0     N12       1.03311      .   S
