# CIF file generated by openbabel 2.4.90, see http://openbabel.sf.net
data_I
_chemical_name_common ''
_cell_length_a 21.11
_cell_length_b 17.853
_cell_length_c 17.853
_cell_angle_alpha 119.977
_cell_angle_beta 89.995
_cell_angle_gamma 89.962
_space_group_name_H-M_alt 'P 1'
_space_group_name_Hall 'P 1'
loop_
    _symmetry_equiv_pos_as_xyz
    x,y,z
loop_
    _atom_site_label
    _atom_site_type_symbol
    _atom_site_fract_x
    _atom_site_fract_y
    _atom_site_fract_z
    _atom_site_occupancy
    C0      C    0.33934   0.46478   0.94900   1.000
    C1      C    0.83933   0.46480   0.94904   1.000
    C2      C    0.17267   0.48411   0.53513   1.000
    C3      C    0.67266   0.48416   0.53510   1.000
    C4      C    0.00597   0.05105   0.51581   1.000
    C5      C    0.50597   0.05107   0.51585   1.000
    C6      C    0.08930   0.53517   0.05090   1.000
    C7      C    0.58929   0.53513   0.05094   1.000
    C8      C    0.42266   0.51588   0.46472   1.000
    C9      C    0.92265   0.51594   0.46476   1.000
    C10     C    0.25602   0.94907   0.48427   1.000
    C11     C    0.75601   0.94909   0.48432   1.000
    Cl12    Cl   0.44873   0.46162   0.13519   1.000
    Cl13    Cl   0.94875   0.46169   0.13520   1.000
    Cl14    Cl   0.28197   0.67358   0.53820   1.000
    Cl15    Cl   0.78193   0.67364   0.53827   1.000
    Cl16    Cl   0.11541   0.86493   0.32660   1.000
    Cl17    Cl   0.61542   0.86492   0.32665   1.000
    Cl18    Cl   0.19870   0.53815   0.86459   1.000
    Cl19    Cl   0.69866   0.53817   0.86462   1.000
    Cl20    Cl   0.03200   0.32647   0.46150   1.000
    Cl21    Cl   0.53201   0.32647   0.46159   1.000
    Cl22    Cl   0.36541   0.13512   0.67300   1.000
    Cl23    Cl   0.86543   0.13515   0.67350   1.000
    O24     O    0.34137   0.51889   0.03002   1.000
    O25     O    0.84136   0.51891   0.03000   1.000
    O26     O    0.29181   0.41937   0.90874   1.000
    O27     O    0.79180   0.41940   0.90871   1.000
    O28     O    0.17474   0.51117   0.48115   1.000
    O29     O    0.67472   0.51120   0.48117   1.000
    O30     O    0.12509   0.48896   0.58042   1.000
    O31     O    0.62508   0.48901   0.58045   1.000
    O32     O    0.00809   0.97012   0.48901   1.000
    O33     O    0.50809   0.97014   0.48904   1.000
    O34     O    0.45840   0.09140   0.51075   1.000
    O35     O    0.95838   0.09137   0.51069   1.000
    O36     O    0.09140   0.48110   0.96993   1.000
    O37     O    0.59139   0.48108   0.96990   1.000
    O38     O    0.04172   0.58058   0.09125   1.000
    O39     O    0.54171   0.58052   0.09130   1.000
    O40     O    0.42472   0.48898   0.51882   1.000
    O41     O    0.92471   0.48902   0.51883   1.000
    O42     O    0.37510   0.51090   0.41930   1.000
    O43     O    0.87509   0.51101   0.41941   1.000
    O44     O    0.25807   0.03002   0.51116   1.000
    O45     O    0.75806   0.03005   0.51120   1.000
    O46     O    0.20847   0.90873   0.48931   1.000
    O47     O    0.70846   0.90877   0.48940   1.000
loop_
    _geom_bond_atom_site_label_1
    _geom_bond_atom_site_label_2
    _geom_bond_distance
    _geom_bond_site_symmetry_2
    _ccdc_geom_bond_type
    O25    C1        1.27629  1_554   S
    O24    C0        1.27712  1_554   S
    C6     O38       1.26494      .   S
    C6     O36       1.27630  1_554   S
    C7     O39       1.26490      .   S
    C7     O37       1.27717  1_554   S
    O42    C8        1.26545      .   S
    O43    C9        1.26498      .   S
    C8     O40       1.27630      .   S
    C9     O41       1.27615      .   S
    O28    C2        1.27634      .   S
    O29    C3        1.27539      .   S
    C10    O46       1.26486      .   S
    C10    O44       1.27591  1_565   S
    C11    O47       1.26491      .   S
    C11    O45       1.27589  1_565   S
    O32    C4        1.27584  1_565   S
    O33    C5        1.27584  1_565   S
    O35    C4        1.26524  1_655   S
    O34    C5        1.26484      .   S
    C3     O31       1.26553      .   S
    C2     O30       1.26489      .   S
    O27    C1        1.26495      .   S
    O26    C0        1.26467      .   S
