# CIF file generated by openbabel 2.4.90, see http://openbabel.sf.net
data_I
_chemical_name_common ''
_cell_length_a 21.11
_cell_length_b 17.853
_cell_length_c 17.853
_cell_angle_alpha 119.977
_cell_angle_beta 89.995
_cell_angle_gamma 89.962
_space_group_name_H-M_alt 'P 1'
_space_group_name_Hall 'P 1'
loop_
    _symmetry_equiv_pos_as_xyz
    x,y,z
loop_
    _atom_site_label
    _atom_site_type_symbol
    _atom_site_fract_x
    _atom_site_fract_y
    _atom_site_fract_z
    _atom_site_occupancy
    C0      C    0.33934   0.46478   0.94900   1.000
    C1      C    0.83933   0.46480   0.94904   1.000
    C2      C    0.17267   0.48411   0.53513   1.000
    C3      C    0.67266   0.48416   0.53510   1.000
    C4      C    0.00597   0.05105   0.51581   1.000
    C5      C    0.50597   0.05107   0.51585   1.000
    C6      C    0.08930   0.53517   0.05090   1.000
    C7      C    0.58929   0.53513   0.05094   1.000
    C8      C    0.42266   0.51588   0.46472   1.000
    C9      C    0.92265   0.51594   0.46476   1.000
    C10     C    0.25602   0.94907   0.48427   1.000
    C11     C    0.75601   0.94909   0.48432   1.000
