# CIF file generated by openbabel 2.4.90, see http://openbabel.sf.net
data_I
_chemical_name_common ''
_cell_length_a 21.11
_cell_length_b 17.853
_cell_length_c 17.853
_cell_angle_alpha 119.977
_cell_angle_beta 89.995
_cell_angle_gamma 89.962
_space_group_name_H-M_alt 'P 1'
_space_group_name_Hall 'P 1'
loop_
    _symmetry_equiv_pos_as_xyz
    x,y,z
loop_
    _atom_site_label
    _atom_site_type_symbol
    _atom_site_fract_x
    _atom_site_fract_y
    _atom_site_fract_z
    _atom_site_occupancy
    C0      C    0.44178   0.54725   0.07780   1.000
    C1      C    0.94177   0.54730   0.07787   1.000
    C2      C    0.27516   0.53068   0.45270   1.000
    C3      C    0.77515   0.53074   0.45275   1.000
    C4      C    0.10850   0.92225   0.46953   1.000
    C5      C    0.60849   0.92226   0.46957   1.000
    C6      C    0.19183   0.45265   0.92205   1.000
    C7      C    0.69183   0.45266   0.92207   1.000
    C8      C    0.02515   0.46938   0.54718   1.000
    C9      C    0.52513   0.46937   0.54719   1.000
    C10     C    0.35847   0.07785   0.53059   1.000
    C11     C    0.85845   0.07787   0.53060   1.000
    C12     C    0.49389   0.47723   0.92913   1.000
    C13     C    0.99388   0.47728   0.92913   1.000
    C14     C    0.09537   0.48974   0.70249   1.000
    C15     C    0.59535   0.48970   0.70248   1.000
    C16     C    0.41403   0.55350   0.66569   1.000
    C17     C    0.91402   0.55350   0.66566   1.000
    C18     C    0.38341   0.60111   0.81827   1.000
    C19     C    0.88340   0.60111   0.81824   1.000
    C20     C    0.07338   0.53395   0.85569   1.000
    C21     C    0.57337   0.53389   0.85568   1.000
    C22     C    0.49602   0.62754   0.98579   1.000
    C23     C    0.99600   0.62759   0.98570   1.000
    C24     C    0.41404   0.62605   0.96154   1.000
    C25     C    0.91402   0.62608   0.96152   1.000
    C26     C    0.38229   0.47289   0.84674   1.000
    C27     C    0.88229   0.47289   0.84672   1.000
    C28     C    0.37261   0.32322   0.80497   1.000
    C29     C    0.87263   0.32323   0.80497   1.000
    C30     C    0.44618   0.24756   0.85137   1.000
    C31     C    0.94620   0.24761   0.85141   1.000
    C32     C    0.40207   0.32579   0.94114   1.000
    C33     C    0.90207   0.32583   0.94116   1.000
    C34     C    0.48179   0.34699   0.92909   1.000
    C35     C    0.98179   0.34707   0.92914   1.000
    C36     C    0.51134   0.36852   0.79327   1.000
    C37     C    0.00000   0.36857   0.79331   1.000
    C38     C    0.44804   0.36818   0.72760   1.000
    C39     C    0.94807   0.36819   0.72760   1.000
    C40     C    0.47055   0.27069   0.72376   1.000
    C41     C    0.97058   0.27072   0.72379   1.000
    C42     C    0.32727   0.45183   0.52264   1.000
    C43     C    0.82726   0.45188   0.52269   1.000
    C44     C    0.42870   0.21269   0.51019   1.000
    C45     C    0.92868   0.21273   0.51024   1.000
    C46     C    0.24741   0.11235   0.44652   1.000
    C47     C    0.74740   0.11237   0.44650   1.000
    C48     C    0.21685   0.21734   0.39884   1.000
    C49     C    0.71685   0.21737   0.39884   1.000
    C50     C    0.40678   0.32169   0.46591   1.000
    C51     C    0.90677   0.32174   0.46599   1.000
    C52     C    0.32952   0.35832   0.37233   1.000
    C53     C    0.82952   0.35837   0.37238   1.000
    C54     C    0.24753   0.33563   0.37384   1.000
    C55     C    0.74754   0.33568   0.37387   1.000
    C56     C    0.21578   0.37377   0.52709   1.000
    C57     C    0.71576   0.37381   0.52710   1.000
    C58     C    0.20593   0.48168   0.67675   1.000
    C59     C    0.70590   0.48170   0.67677   1.000
    C60     C    0.27941   0.60376   0.75221   1.000
    C61     C    0.77936   0.60377   0.75226   1.000
    C62     C    0.23524   0.61519   0.67396   1.000
    C63     C    0.73522   0.61522   0.67401   1.000
    C64     C    0.31499   0.58197   0.65267   1.000
    C65     C    0.81497   0.58200   0.65274   1.000
    C66     C    0.34472   0.42471   0.63138   1.000
    C67     C    0.84468   0.42472   0.63144   1.000
    C68     C    0.28148   0.35946   0.63196   1.000
    C69     C    0.78143   0.35947   0.63190   1.000
    C70     C    0.30391   0.45316   0.72932   1.000
    C71     C    0.80385   0.45316   0.72935   1.000
    C72     C    0.16051   0.07095   0.54814   1.000
    C73     C    0.66051   0.07095   0.54810   1.000
    C74     C    0.26215   0.29732   0.78711   1.000
    C75     C    0.76215   0.29730   0.78714   1.000
    C76     C    0.08089   0.33441   0.88790   1.000
    C77     C    0.58088   0.33443   0.88792   1.000
    C78     C    0.05021   0.18193   0.78295   1.000
    C79     C    0.55020   0.18194   0.78297   1.000
    C80     C    0.24010   0.14421   0.67809   1.000
    C81     C    0.74009   0.14419   0.67814   1.000
    C82     C    0.16276   0.01423   0.64181   1.000
    C83     C    0.66274   0.01423   0.64185   1.000
    C84     C    0.08079   0.03865   0.66467   1.000
    C85     C    0.58077   0.03866   0.66471   1.000
    C86     C    0.04886   0.15337   0.62617   1.000
    C87     C    0.54886   0.15339   0.62620   1.000
    C88     C    0.03911   0.19512   0.51820   1.000
    C89     C    0.53913   0.19512   0.51821   1.000
    C90     C    0.11276   0.14868   0.39623   1.000
    C91     C    0.61279   0.14864   0.39624   1.000
    C92     C    0.06869   0.05894   0.38471   1.000
    C93     C    0.56869   0.05893   0.38474   1.000
    C94     C    0.14840   0.07094   0.41804   1.000
    C95     C    0.64840   0.07089   0.41807   1.000
    C96     C    0.17783   0.20680   0.57527   1.000
    C97     C    0.67784   0.20676   0.57529   1.000
    C98     C    0.11449   0.27254   0.64049   1.000
    C99     C    0.61451   0.27254   0.64050   1.000
    C100    C    0.13699   0.27627   0.54600   1.000
    C101    C    0.63703   0.27624   0.54679   1.000
    C102    C    0.24385   0.52264   0.07078   1.000
    C103    C    0.74386   0.52265   0.07078   1.000
    C104    C    0.34544   0.51019   0.29731   1.000
    C105    C    0.84545   0.51022   0.29735   1.000
    C106    C    0.16420   0.44660   0.33439   1.000
    C107    C    0.66419   0.44666   0.33440   1.000
    C108    C    0.13356   0.39892   0.18180   1.000
    C109    C    0.63357   0.39894   0.18183   1.000
    C110    C    0.32343   0.46593   0.14411   1.000
    C111    C    0.82345   0.46593   0.14414   1.000
    C112    C    0.24612   0.37232   0.01413   1.000
    C113    C    0.74616   0.37234   0.01415   1.000
    C114    C    0.16415   0.37388   0.03848   1.000
    C115    C    0.66419   0.37386   0.03849   1.000
    C116    C    0.13225   0.52711   0.15325   1.000
    C117    C    0.63228   0.52709   0.15328   1.000
    C118    C    0.12246   0.67677   0.19486   1.000
    C119    C    0.62245   0.67675   0.19480   1.000
    C120    C    0.19606   0.75220   0.14828   1.000
    C121    C    0.69603   0.75220   0.14829   1.000
    C122    C    0.15196   0.67401   0.05861   1.000
    C123    C    0.65192   0.67399   0.05863   1.000
    C124    C    0.23168   0.65265   0.07060   1.000
    C125    C    0.73165   0.65265   0.07060   1.000
    C126    C    0.26118   0.63130   0.20657   1.000
    C127    C    0.76119   0.63131   0.20656   1.000
    C128    C    0.19786   0.63186   0.27232   1.000
    C129    C    0.69789   0.63186   0.27233   1.000
    C130    C    0.22036   0.72925   0.27602   1.000
    C131    C    0.72037   0.72925   0.27601   1.000
    C132    C    0.07724   0.54814   0.47718   1.000
    C133    C    0.57721   0.54814   0.47718   1.000
    C134    C    0.17875   0.78714   0.48978   1.000
    C135    C    0.67872   0.78713   0.48980   1.000
    C136    C    0.99748   0.88796   0.55362   1.000
    C137    C    0.49746   0.88799   0.55366   1.000
    C138    C    0.46676   0.78291   0.60112   1.000
    C139    C    0.96677   0.78290   0.60110   1.000
    C140    C    0.15669   0.67803   0.53383   1.000
    C141    C    0.65665   0.67801   0.53383   1.000
    C142    C    0.07934   0.64166   0.62754   1.000
    C143    C    0.57928   0.64165   0.62755   1.000
    C144    C    0.99736   0.66446   0.62594   1.000
    C145    C    0.49730   0.66444   0.62590   1.000
    C146    C    0.46561   0.62625   0.47280   1.000
    C147    C    0.96563   0.62629   0.47283   1.000
    C148    C    0.45590   0.51842   0.32312   1.000
    C149    C    0.95590   0.51847   0.32315   1.000
    C150    C    0.02952   0.39642   0.24756   1.000
    C151    C    0.52954   0.39641   0.24756   1.000
    C152    C    0.48543   0.38485   0.32578   1.000
    C153    C    0.98539   0.38489   0.32579   1.000
    C154    C    0.06513   0.41812   0.34704   1.000
    C155    C    0.56514   0.41812   0.34705   1.000
    C156    C    0.09464   0.57539   0.36846   1.000
    C157    C    0.59461   0.57541   0.36847   1.000
    C158    C    0.03133   0.64071   0.36801   1.000
    C159    C    0.53128   0.64070   0.36800   1.000
    C160    C    0.05384   0.54705   0.27058   1.000
    C161    C    0.55382   0.54705   0.27058   1.000
    C162    C    0.41060   0.92912   0.45189   1.000
    C163    C    0.91057   0.92913   0.45188   1.000
    C164    C    0.01202   0.70239   0.21261   1.000
    C165    C    0.51202   0.70236   0.21260   1.000
    C166    C    0.33066   0.66587   0.11240   1.000
    C167    C    0.83065   0.66590   0.11237   1.000
    C168    C    0.30014   0.81849   0.21730   1.000
    C169    C    0.80011   0.81851   0.21737   1.000
    C170    C    0.49015   0.85558   0.32159   1.000
    C171    C    0.99010   0.85561   0.32161   1.000
    C172    C    0.41287   0.98581   0.35826   1.000
    C173    C    0.91281   0.98583   0.35826   1.000
    C174    C    0.33088   0.96171   0.33553   1.000
    C175    C    0.83082   0.96171   0.33555   1.000
    C176    C    0.29904   0.84677   0.37389   1.000
    C177    C    0.79900   0.84679   0.37392   1.000
    C178    C    0.28930   0.80493   0.48175   1.000
    C179    C    0.78929   0.80495   0.48180   1.000
    C180    C    0.36276   0.85135   0.60382   1.000
    C181    C    0.86278   0.85136   0.60383   1.000
    C182    C    0.31862   0.94109   0.61530   1.000
    C183    C    0.81864   0.94111   0.61533   1.000
    C184    C    0.39837   0.92912   0.58210   1.000
    C185    C    0.89838   0.92912   0.58209   1.000
    C186    C    0.42808   0.79333   0.42486   1.000
    C187    C    0.92805   0.79332   0.42484   1.000
    C188    C    0.36486   0.72759   0.35954   1.000
    C189    C    0.86482   0.72759   0.35955   1.000
    C190    C    0.38728   0.72381   0.45323   1.000
    C191    C    0.88726   0.72381   0.45323   1.000
    C192    C    0.04898   0.51402   0.73084   1.000
    C193    C    0.54896   0.51398   0.73084   1.000
    C194    C    0.44743   0.55048   0.71048   1.000
    C195    C    0.94742   0.55048   0.71046   1.000
    C196    C    0.43102   0.57657   0.79548   1.000
    C197    C    0.93101   0.57658   0.79546   1.000
    C198    C    0.47542   0.56969   0.84992   1.000
    C199    C    0.97541   0.56973   0.84991   1.000
    C200    C    0.03591   0.53904   0.81636   1.000
    C201    C    0.53589   0.53899   0.81630   1.000
    C202    C    0.45848   0.58919   0.93995   1.000
    C203    C    0.95846   0.58923   0.93994   1.000
    C204    C    0.33934   0.46478   0.94900   1.000
    C205    C    0.83933   0.46480   0.94904   1.000
    C206    C    0.39805   0.45243   0.89267   1.000
    C207    C    0.89804   0.45245   0.89266   1.000
    C208    C    0.41661   0.35618   0.83778   1.000
    C209    C    0.91662   0.35620   0.83779   1.000
    C210    C    0.43801   0.31729   0.89301   1.000
    C211    C    0.93802   0.31734   0.89305   1.000
    C212    C    0.46456   0.34057   0.76710   1.000
    C213    C    0.96458   0.34060   0.76710   1.000
    C214    C    0.38233   0.21683   0.48592   1.000
    C215    C    0.88231   0.21687   0.48597   1.000
    C216    C    0.28082   0.16013   0.44950   1.000
    C217    C    0.78081   0.16015   0.44951   1.000
    C218    C    0.26445   0.21900   0.42334   1.000
    C219    C    0.76444   0.21904   0.42330   1.000
    C220    C    0.30886   0.28026   0.43010   1.000
    C221    C    0.80885   0.28031   0.43022   1.000
    C222    C    0.36931   0.27731   0.46084   1.000
    C223    C    0.86929   0.27736   0.46090   1.000
    C224    C    0.29195   0.35081   0.41068   1.000
    C225    C    0.79194   0.35086   0.41072   1.000
    C226    C    0.17267   0.48411   0.53513   1.000
    C227    C    0.67266   0.48416   0.53510   1.000
    C228    C    0.23143   0.44016   0.54750   1.000
    C229    C    0.73142   0.44020   0.54750   1.000
    C230    C    0.24993   0.48153   0.64375   1.000
    C231    C    0.74990   0.48155   0.64378   1.000
    C232    C    0.27123   0.57562   0.68248   1.000
    C233    C    0.77121   0.57564   0.68254   1.000
    C234    C    0.29794   0.42654   0.65942   1.000
    C235    C    0.79790   0.42655   0.65945   1.000
    C236    C    0.21575   0.26905   0.78305   1.000
    C237    C    0.71575   0.26904   0.78309   1.000
    C238    C    0.11425   0.28956   0.84002   1.000
    C239    C    0.61424   0.28958   0.84004   1.000
    C240    C    0.09782   0.20462   0.78116   1.000
    C241    C    0.59781   0.20463   0.78118   1.000
    C242    C    0.14218   0.15015   0.71976   1.000
    C243    C    0.64217   0.15015   0.71980   1.000
    C244    C    0.20266   0.18358   0.72250   1.000
    C245    C    0.70265   0.18357   0.72262   1.000
    C246    C    0.12521   0.06015   0.64930   1.000
    C247    C    0.62519   0.06015   0.64930   1.000
    C248    C    0.00597   0.05105   0.51581   1.000
    C249    C    0.50597   0.05107   0.51585   1.000
    C250    C    0.06464   0.10743   0.55980   1.000
    C251    C    0.56464   0.10744   0.55984   1.000
    C252    C    0.08314   0.16231   0.51840   1.000
    C253    C    0.58315   0.16230   0.51842   1.000
    C254    C    0.10459   0.10705   0.42434   1.000
    C255    C    0.60461   0.10702   0.42436   1.000
    C256    C    0.13103   0.23298   0.57342   1.000
    C257    C    0.63105   0.23296   0.57343   1.000
    C258    C    0.29906   0.48594   0.26901   1.000
    C259    C    0.79907   0.48597   0.26900   1.000
    C260    C    0.19757   0.44956   0.28952   1.000
    C261    C    0.69757   0.44961   0.28955   1.000
    C262    C    0.18115   0.42343   0.20454   1.000
    C263    C    0.68116   0.42346   0.20456   1.000
    C264    C    0.22552   0.43024   0.15003   1.000
    C265    C    0.72554   0.43025   0.15005   1.000
    C266    C    0.28598   0.46089   0.18350   1.000
    C267    C    0.78600   0.46090   0.18353   1.000
    C268    C    0.20856   0.41071   0.06001   1.000
    C269    C    0.70858   0.41071   0.06002   1.000
    C270    C    0.08930   0.53517   0.05090   1.000
    C271    C    0.58929   0.53513   0.05094   1.000
    C272    C    0.14799   0.54750   0.10726   1.000
    C273    C    0.64799   0.54748   0.10729   1.000
    C274    C    0.16648   0.64374   0.16206   1.000
    C275    C    0.66647   0.64373   0.16207   1.000
    C276    C    0.18789   0.68249   0.10671   1.000
    C277    C    0.68786   0.68248   0.10672   1.000
    C278    C    0.21439   0.65936   0.23274   1.000
    C279    C    0.71440   0.65936   0.23274   1.000
    C280    C    0.13235   0.78309   0.51403   1.000
    C281    C    0.63232   0.78308   0.51405   1.000
    C282    C    0.03085   0.84006   0.55055   1.000
    C283    C    0.53082   0.84007   0.55058   1.000
    C284    C    0.01441   0.78114   0.57660   1.000
    C285    C    0.51438   0.78114   0.57662   1.000
    C286    C    0.05878   0.71972   0.56965   1.000
    C287    C    0.55874   0.71972   0.56966   1.000
    C288    C    0.11925   0.72255   0.53899   1.000
    C289    C    0.61921   0.72254   0.53899   1.000
    C290    C    0.04182   0.64920   0.58914   1.000
    C291    C    0.54177   0.64919   0.58914   1.000
    C292    C    0.42266   0.51588   0.46472   1.000
    C293    C    0.92265   0.51594   0.46476   1.000
    C294    C    0.48136   0.55985   0.45235   1.000
    C295    C    0.98136   0.55989   0.45236   1.000
    C296    C    0.49991   0.51856   0.35610   1.000
    C297    C    0.99990   0.51859   0.35611   1.000
    C298    C    0.02134   0.42449   0.31729   1.000
    C299    C    0.52135   0.42448   0.31728   1.000
    C300    C    0.04786   0.57362   0.34048   1.000
    C301    C    0.54783   0.57361   0.34047   1.000
    C302    C    0.46565   0.73080   0.21678   1.000
    C303    C    0.96562   0.73083   0.21678   1.000
    C304    C    0.36409   0.71060   0.16015   1.000
    C305    C    0.86407   0.71063   0.16013   1.000
    C306    C    0.34774   0.79562   0.21902   1.000
    C307    C    0.84771   0.79564   0.21902   1.000
    C308    C    0.39217   0.84997   0.28026   1.000
    C309    C    0.89214   0.84999   0.28026   1.000
    C310    C    0.45264   0.81634   0.27725   1.000
    C311    C    0.95260   0.81636   0.27727   1.000
    C312    C    0.37528   0.94002   0.35076   1.000
    C313    C    0.87523   0.94003   0.35070   1.000
    C314    C    0.25602   0.94907   0.48427   1.000
    C315    C    0.75601   0.94909   0.48432   1.000
    C316    C    0.31476   0.89269   0.44025   1.000
    C317    C    0.81473   0.89270   0.44028   1.000
    C318    C    0.33329   0.83777   0.48162   1.000
    C319    C    0.83328   0.83778   0.48164   1.000
    C320    C    0.35460   0.89300   0.57572   1.000
    C321    C    0.85461   0.89301   0.57573   1.000
    C322    C    0.38131   0.76713   0.42663   1.000
    C323    C    0.88128   0.76713   0.42664   1.000
    C324    C    0.00523   0.51843   0.67771   1.000
    C325    C    0.50521   0.51842   0.67772   1.000
    C326    C    0.45089   0.50917   0.94575   1.000
    C327    C    0.95088   0.50921   0.94574   1.000
    C328    C    0.33857   0.15934   0.48153   1.000
    C329    C    0.83856   0.15937   0.48155   1.000
    C330    C    0.28429   0.43656   0.49073   1.000
    C331    C    0.78428   0.43661   0.49077   1.000
    C332    C    0.17203   0.32221   0.84067   1.000
    C333    C    0.67202   0.32222   0.84069   1.000
    C334    C    0.11755   0.05435   0.56352   1.000
    C335    C    0.61754   0.05436   0.56356   1.000
    C336    C    0.25533   0.48158   0.32220   1.000
    C337    C    0.75533   0.48163   0.32224   1.000
    C338    C    0.20088   0.49072   0.05418   1.000
    C339    C    0.70089   0.49071   0.05419   1.000
    C340    C    0.08863   0.84075   0.51853   1.000
    C341    C    0.58861   0.84075   0.51856   1.000
    C342    C    0.03424   0.56346   0.50910   1.000
    C343    C    0.53421   0.56344   0.50910   1.000
    C344    C    0.42187   0.67775   0.15933   1.000
    C345    C    0.92184   0.67779   0.15932   1.000
    C346    C    0.36762   0.94575   0.43655   1.000
    C347    C    0.86759   0.94577   0.43656   1.000
    C348    C    0.44873   0.46162   0.13519   1.000
    C349    C    0.94875   0.46169   0.13520   1.000
    C350    C    0.28197   0.67358   0.53820   1.000
    C351    C    0.78193   0.67364   0.53827   1.000
    C352    C    0.11541   0.86493   0.32660   1.000
    C353    C    0.61542   0.86492   0.32665   1.000
    C354    C    0.19870   0.53815   0.86459   1.000
    C355    C    0.69866   0.53817   0.86462   1.000
    C356    C    0.03200   0.32647   0.46150   1.000
    C357    C    0.53201   0.32647   0.46159   1.000
    C358    C    0.36541   0.13512   0.67300   1.000
    C359    C    0.86543   0.13515   0.67350   1.000
    C360    C    0.34137   0.51889   0.03002   1.000
    C361    C    0.84136   0.51891   0.03000   1.000
    C362    C    0.29181   0.41937   0.90874   1.000
    C363    C    0.79180   0.41940   0.90871   1.000
    C364    C    0.17474   0.51117   0.48115   1.000
    C365    C    0.67472   0.51120   0.48117   1.000
    C366    C    0.12509   0.48896   0.58042   1.000
    C367    C    0.62508   0.48901   0.58045   1.000
    C368    C    0.00809   0.97012   0.48901   1.000
    C369    C    0.50809   0.97014   0.48904   1.000
    C370    C    0.45840   0.09140   0.51075   1.000
    C371    C    0.95838   0.09137   0.51069   1.000
    C372    C    0.09140   0.48110   0.96993   1.000
    C373    C    0.59139   0.48108   0.96990   1.000
    C374    C    0.04172   0.58058   0.09125   1.000
    C375    C    0.54171   0.58052   0.09130   1.000
    C376    C    0.42472   0.48898   0.51882   1.000
    C377    C    0.92471   0.48902   0.51883   1.000
    C378    C    0.37510   0.51090   0.41930   1.000
    C379    C    0.87509   0.51101   0.41941   1.000
    C380    C    0.25807   0.03002   0.51116   1.000
    C381    C    0.75806   0.03005   0.51120   1.000
    C382    C    0.20847   0.90873   0.48931   1.000
    C383    C    0.70846   0.90877   0.48940   1.000
    O384    O    0.22734   0.39152   0.03707   1.000
    O385    O    0.72737   0.39153   0.03708   1.000
    O386    O    0.89156   0.53310   0.05393   1.000
    O387    O    0.84034   0.49185   0.98952   1.000
    O388    O    0.39157   0.53307   0.05391   1.000
    O389    O    0.34035   0.49183   0.98951   1.000
    O390    O    0.18635   0.39229   0.04925   1.000
    O391    O    0.68639   0.39228   0.04925   1.000
    O392    O    0.06551   0.55788   0.07108   1.000
    O393    O    0.11864   0.54134   0.07908   1.000
    O394    O    0.09035   0.50813   0.01041   1.000
    O395    O    0.56550   0.55783   0.07112   1.000
    O396    O    0.61864   0.54131   0.07911   1.000
    O397    O    0.59034   0.50811   0.01042   1.000
    O398    O    0.20472   0.45071   0.05709   1.000
    O399    O    0.22237   0.50668   0.06248   1.000
    O400    O    0.17444   0.51911   0.08072   1.000
    O401    O    0.19636   0.47168   0.98811   1.000
    O402    O    0.70474   0.45071   0.05710   1.000
    O403    O    0.72237   0.50668   0.06248   1.000
    O404    O    0.67444   0.51910   0.08074   1.000
    O405    O    0.69636   0.47169   0.98813   1.000
    O406    O    0.16992   0.67825   0.08266   1.000
    O407    O    0.66989   0.67824   0.08267   1.000
    O408    O    0.21704   0.42047   0.10502   1.000
    O409    O    0.71706   0.42048   0.10503   1.000
    O410    O    0.20978   0.66757   0.08865   1.000
    O411    O    0.70975   0.66757   0.08866   1.000
    O412    O    0.49175   0.56388   0.08455   1.000
    O413    O    0.44526   0.50444   0.10650   1.000
    O414    O    0.43182   0.61250   0.11856   1.000
    O415    O    0.44634   0.52821   0.01177   1.000
    O416    O    0.99175   0.56394   0.08456   1.000
    O417    O    0.94526   0.50449   0.10653   1.000
    O418    O    0.93181   0.61254   0.11859   1.000
    O419    O    0.94632   0.52825   0.01181   1.000
    O420    O    0.19198   0.71735   0.12749   1.000
    O421    O    0.17719   0.66312   0.13439   1.000
    O422    O    0.69195   0.71734   0.12751   1.000
    O423    O    0.67717   0.66311   0.13439   1.000
    O424    O    0.14012   0.53730   0.13025   1.000
    O425    O    0.15723   0.59562   0.13466   1.000
    O426    O    0.64013   0.53729   0.13028   1.000
    O427    O    0.65723   0.59561   0.13468   1.000
    O428    O    0.84736   0.68826   0.13625   1.000
    O429    O    0.34738   0.68823   0.13628   1.000
    O430    O    0.30470   0.46341   0.16381   1.000
    O431    O    0.80473   0.46342   0.16384   1.000
    O432    O    0.25575   0.44556   0.16677   1.000
    O433    O    0.20334   0.42683   0.17728   1.000
    O434    O    0.75577   0.44558   0.16679   1.000
    O435    O    0.70335   0.42685   0.17730   1.000
    O436    O    0.89296   0.69421   0.15973   1.000
    O437    O    0.94373   0.70431   0.18805   1.000
    O438    O    0.39298   0.69418   0.15974   1.000
    O439    O    0.44376   0.70428   0.18805   1.000
    O440    O    0.85589   0.75314   0.18957   1.000
    O441    O    0.35592   0.75311   0.18958   1.000
    O442    O    0.14447   0.66026   0.17846   1.000
    O443    O    0.19044   0.65155   0.19740   1.000
    O444    O    0.64446   0.66024   0.17844   1.000
    O445    O    0.69044   0.65155   0.19740   1.000
    O446    O    0.15735   0.41117   0.19317   1.000
    O447    O    0.65737   0.41120   0.19320   1.000
    O448    O    0.29252   0.47341   0.22626   1.000
    O449    O    0.79253   0.47344   0.22627   1.000
    O450    O    0.18936   0.43650   0.24703   1.000
    O451    O    0.68937   0.43653   0.24705   1.000
    O452    O    0.73780   0.64534   0.21965   1.000
    O453    O    0.23779   0.64533   0.21966   1.000
    O454    O    0.48884   0.71658   0.21469   1.000
    O455    O    0.98882   0.71661   0.21469   1.000
    O456    O    0.95911   0.77360   0.24702   1.000
    O457    O    0.45914   0.77357   0.24701   1.000
    O458    O    0.32394   0.80706   0.21816   1.000
    O459    O    0.82391   0.80708   0.21820   1.000
    O460    O    0.86992   0.82282   0.24964   1.000
    O461    O    0.36996   0.82280   0.24964   1.000
    O462    O    0.70614   0.64561   0.25254   1.000
    O463    O    0.71739   0.69430   0.25438   1.000
    O464    O    0.20613   0.64561   0.25253   1.000
    O465    O    0.21738   0.69430   0.25438   1.000
    O466    O    0.52545   0.41044   0.28242   1.000
    O467    O    0.02543   0.41046   0.28243   1.000
    O468    O    0.82226   0.49810   0.28318   1.000
    O469    O    0.77720   0.48380   0.29562   1.000
    O470    O    0.32225   0.49806   0.28316   1.000
    O471    O    0.27720   0.48376   0.29561   1.000
    O472    O    0.55082   0.56033   0.30552   1.000
    O473    O    0.05085   0.56033   0.30553   1.000
    O474    O    0.42241   0.83315   0.27875   1.000
    O475    O    0.47139   0.83596   0.29942   1.000
    O476    O    0.92237   0.83318   0.27876   1.000
    O477    O    0.97135   0.83598   0.29944   1.000
    O478    O    0.38372   0.89499   0.31551   1.000
    O479    O    0.88368   0.89501   0.31548   1.000
    O480    O    0.22645   0.46557   0.30586   1.000
    O481    O    0.18088   0.44808   0.31195   1.000
    O482    O    0.72645   0.46562   0.30589   1.000
    O483    O    0.68088   0.44813   0.31197   1.000
    O484    O    0.50339   0.40466   0.32153   1.000
    O485    O    0.54325   0.42130   0.33216   1.000
    O486    O    0.51063   0.47152   0.33669   1.000
    O487    O    0.00337   0.40469   0.32154   1.000
    O488    O    0.04324   0.42131   0.33216   1.000
    O489    O    0.01062   0.47154   0.33670   1.000
    O490    O    0.26525   0.50613   0.38745   1.000
    O491    O    0.76524   0.50619   0.38749   1.000
    O492    O    0.47791   0.51849   0.33961   1.000
    O493    O    0.97790   0.51853   0.33963   1.000
    O494    O    0.11195   0.89359   0.39807   1.000
    O495    O    0.61195   0.89359   0.39811   1.000
    O496    O    0.35308   0.95086   0.34315   1.000
    O497    O    0.85303   0.95087   0.34312   1.000
    O498    O    0.52387   0.54608   0.34829   1.000
    O499    O    0.53955   0.60715   0.35423   1.000
    O500    O    0.57122   0.57451   0.35447   1.000
    O501    O    0.02388   0.54610   0.34829   1.000
    O502    O    0.03959   0.60716   0.35425   1.000
    O503    O    0.07125   0.57451   0.35447   1.000
    O504    O    0.89402   0.96293   0.35448   1.000
    O505    O    0.87141   0.94290   0.39363   1.000
    O506    O    0.39407   0.96292   0.35451   1.000
    O507    O    0.37145   0.94289   0.39366   1.000
    O508    O    0.49063   0.53921   0.40423   1.000
    O509    O    0.99063   0.53924   0.40423   1.000
    O510    O    0.37308   0.74736   0.39309   1.000
    O511    O    0.87305   0.74736   0.39310   1.000
    O512    O    0.31073   0.35456   0.39150   1.000
    O513    O    0.81073   0.35462   0.39155   1.000
    O514    O    0.26974   0.34322   0.39226   1.000
    O515    O    0.76974   0.34327   0.39229   1.000
    O516    O    0.30690   0.86973   0.40707   1.000
    O517    O    0.80686   0.86975   0.40710   1.000
    O518    O    0.08664   0.08299   0.40452   1.000
    O519    O    0.58665   0.08297   0.40455   1.000
    O520    O    0.10868   0.12786   0.41029   1.000
    O521    O    0.60870   0.12783   0.41030   1.000
    O522    O    0.74065   0.21820   0.41107   1.000
    O523    O    0.24065   0.21817   0.41109   1.000
    O524    O    0.30040   0.31554   0.42039   1.000
    O525    O    0.28812   0.39368   0.45071   1.000
    O526    O    0.80040   0.31559   0.42047   1.000
    O527    O    0.78811   0.39374   0.45074   1.000
    O528    O    0.12650   0.08899   0.42119   1.000
    O529    O    0.62650   0.08896   0.42122   1.000
    O530    O    0.32513   0.52079   0.43600   1.000
    O531    O    0.39888   0.51339   0.44201   1.000
    O532    O    0.82512   0.52088   0.43608   1.000
    O533    O    0.89887   0.51348   0.44208   1.000
    O534    O    0.78665   0.24967   0.42676   1.000
    O535    O    0.77262   0.18960   0.43641   1.000
    O536    O    0.28665   0.24963   0.42672   1.000
    O537    O    0.27263   0.18956   0.43642   1.000
    O538    O    0.09387   0.13468   0.47137   1.000
    O539    O    0.59388   0.13466   0.47139   1.000
    O540    O    0.90467   0.78022   0.42574   1.000
    O541    O    0.40469   0.78023   0.42575   1.000
    O542    O    0.38429   0.74547   0.43993   1.000
    O543    O    0.35730   0.80245   0.45413   1.000
    O544    O    0.88427   0.74547   0.43994   1.000
    O545    O    0.85728   0.80246   0.45414   1.000
    O546    O    0.33908   0.27879   0.44547   1.000
    O547    O    0.83907   0.27884   0.44556   1.000
    O548    O    0.34119   0.91922   0.43840   1.000
    O549    O    0.38911   0.93744   0.44422   1.000
    O550    O    0.36304   0.01180   0.48357   1.000
    O551    O    0.84116   0.91924   0.43842   1.000
    O552    O    0.88908   0.93745   0.44422   1.000
    O553    O    0.86302   0.01182   0.48358   1.000
    O554    O    0.32402   0.86523   0.46093   1.000
    O555    O    0.28539   0.92088   0.46226   1.000
    O556    O    0.82400   0.86524   0.46096   1.000
    O557    O    0.78537   0.92090   0.46230   1.000
    O558    O    0.76410   0.13626   0.44801   1.000
    O559    O    0.26411   0.13624   0.44801   1.000
    O560    O    0.30970   0.15973   0.46551   1.000
    O561    O    0.80968   0.15976   0.46553   1.000
    O562    O    0.45201   0.53786   0.45853   1.000
    O563    O    0.47348   0.59305   0.46257   1.000
    O564    O    0.50779   0.56165   0.48073   1.000
    O565    O    0.95201   0.53792   0.45856   1.000
    O566    O    0.97349   0.59309   0.46259   1.000
    O567    O    0.00780   0.56167   0.48073   1.000
    O568    O    0.22495   0.52092   0.46693   1.000
    O569    O    0.27973   0.48362   0.47171   1.000
    O570    O    0.27856   0.60213   0.49545   1.000
    O571    O    0.72494   0.52097   0.46696   1.000
    O572    O    0.77971   0.48368   0.47176   1.000
    O573    O    0.77854   0.60219   0.49551   1.000
    O574    O    0.38805   0.29950   0.46337   1.000
    O575    O    0.37582   0.24707   0.47338   1.000
    O576    O    0.88803   0.29955   0.46344   1.000
    O577    O    0.87580   0.24712   0.47343   1.000
    O578    O    0.02857   0.39792   0.50434   1.000
    O579    O    0.52857   0.39792   0.50439   1.000
    O580    O    0.42369   0.50243   0.49177   1.000
    O581    O    0.92368   0.50248   0.49180   1.000
    O582    O    0.05830   0.94619   0.47927   1.000
    O583    O    0.15848   0.91549   0.47942   1.000
    O584    O    0.09857   0.88150   0.49403   1.000
    O585    O    0.11302   0.98830   0.51653   1.000
    O586    O    0.55829   0.94620   0.47930   1.000
    O587    O    0.65847   0.91552   0.47948   1.000
    O588    O    0.59855   0.88150   0.49406   1.000
    O589    O    0.61301   0.98831   0.51656   1.000
    O590    O    0.55571   0.55579   0.49314   1.000
    O591    O    0.05574   0.55580   0.49314   1.000
    O592    O    0.17370   0.49764   0.50814   1.000
    O593    O    0.67369   0.49768   0.50814   1.000
    O594    O    0.36045   0.18809   0.48373   1.000
    O595    O    0.34852   0.11860   0.50606   1.000
    O596    O    0.86043   0.18812   0.48376   1.000
    O597    O    0.84850   0.11862   0.50607   1.000
    O598    O    0.31130   0.82135   0.48169   1.000
    O599    O    0.34395   0.86538   0.52867   1.000
    O600    O    0.81128   0.82137   0.48172   1.000
    O601    O    0.84395   0.86540   0.52868   1.000
    O602    O    0.23225   0.92890   0.48679   1.000
    O603    O    0.25705   0.98954   0.49771   1.000
    O604    O    0.73223   0.92893   0.48686   1.000
    O605    O    0.75703   0.98957   0.49776   1.000
    O606    O    0.40551   0.21476   0.49805   1.000
    O607    O    0.90549   0.21480   0.49811   1.000
    O608    O    0.00704   0.01059   0.50241   1.000
    O609    O    0.50703   0.01060   0.50245   1.000
    O610    O    0.15555   0.78511   0.50190   1.000
    O611    O    0.65552   0.78511   0.50193   1.000
    O612    O    0.30578   0.44419   0.50669   1.000
    O613    O    0.25786   0.43836   0.51911   1.000
    O614    O    0.80577   0.44425   0.50673   1.000
    O615    O    0.75785   0.43840   0.51914   1.000
    O616    O    0.02969   0.51642   0.52814   1.000
    O617    O    0.03803   0.60633   0.54912   1.000
    O618    O    0.52967   0.51641   0.52814   1.000
    O619    O    0.53799   0.60632   0.54912   1.000
    O620    O    0.98218   0.07121   0.51325   1.000
    O621    O    0.90842   0.08462   0.52064   1.000
    O622    O    0.48218   0.07124   0.51330   1.000
    O623    O    0.40843   0.08463   0.52067   1.000
    O624    O    0.30827   0.05394   0.52087   1.000
    O625    O    0.80826   0.05396   0.52090   1.000
    O626    O    0.11049   0.81192   0.51628   1.000
    O627    O    0.12580   0.75282   0.52651   1.000
    O628    O    0.61047   0.81192   0.51631   1.000
    O629    O    0.62577   0.75281   0.52652   1.000
    O630    O    0.03531   0.07924   0.53780   1.000
    O631    O    0.53530   0.07926   0.53785   1.000
    O632    O    0.06112   0.17871   0.51830   1.000
    O633    O    0.56114   0.17871   0.51831   1.000
    O634    O    0.07389   0.13487   0.53910   1.000
    O635    O    0.10708   0.19764   0.54591   1.000
    O636    O    0.57389   0.13487   0.53913   1.000
    O637    O    0.60710   0.19763   0.54592   1.000
    O638    O    0.05974   0.84040   0.53454   1.000
    O639    O    0.55972   0.84041   0.53457   1.000
    O640    O    0.47493   0.47917   0.53300   1.000
    O641    O    0.97493   0.47920   0.53301   1.000
    O642    O    0.22361   0.40696   0.53729   1.000
    O643    O    0.72359   0.40700   0.53730   1.000
    O644    O    0.36194   0.10649   0.60180   1.000
    O645    O    0.86194   0.10651   0.60205   1.000
    O646    O    0.63793   0.70027   0.53641   1.000
    O647    O    0.13797   0.70029   0.53641   1.000
    O648    O    0.70204   0.46218   0.54130   1.000
    O649    O    0.64887   0.48659   0.55778   1.000
    O650    O    0.20205   0.46213   0.54131   1.000
    O651    O    0.14888   0.48654   0.55778   1.000
    O652    O    0.58898   0.72113   0.55433   1.000
    O653    O    0.08902   0.72114   0.55432   1.000
    O654    O    0.13401   0.25463   0.55971   1.000
    O655    O    0.63404   0.25460   0.56011   1.000
    O656    O    0.07512   0.47917   0.56380   1.000
    O657    O    0.01519   0.49391   0.61245   1.000
    O658    O    0.57510   0.47919   0.56382   1.000
    O659    O    0.51517   0.49390   0.61245   1.000
    O660    O    0.24068   0.46084   0.59562   1.000
    O661    O    0.74066   0.46088   0.59564   1.000
    O662    O    0.63902   0.06265   0.55583   1.000
    O663    O    0.13903   0.06265   0.55583   1.000
    O664    O    0.01416   0.86401   0.55209   1.000
    O665    O    0.02263   0.81060   0.56358   1.000
    O666    O    0.51414   0.86403   0.55212   1.000
    O667    O    0.52260   0.81061   0.56360   1.000
    O668    O    0.09110   0.08089   0.56166   1.000
    O669    O    0.05675   0.13040   0.59299   1.000
    O670    O    0.59109   0.08090   0.56170   1.000
    O671    O    0.55675   0.13041   0.59302   1.000
    O672    O    0.12138   0.05725   0.60641   1.000
    O673    O    0.62137   0.05725   0.60643   1.000
    O674    O    0.03659   0.75043   0.57312   1.000
    O675    O    0.05030   0.68446   0.57939   1.000
    O676    O    0.53656   0.75043   0.57314   1.000
    O677    O    0.55025   0.68445   0.57940   1.000
    O678    O    0.15443   0.21989   0.57434   1.000
    O679    O    0.12276   0.25276   0.60696   1.000
    O680    O    0.65445   0.21986   0.57436   1.000
    O681    O    0.62278   0.25275   0.60696   1.000
    O682    O    0.37649   0.91106   0.57891   1.000
    O683    O    0.35868   0.87217   0.58977   1.000
    O684    O    0.33661   0.91705   0.59551   1.000
    O685    O    0.87650   0.91107   0.57891   1.000
    O686    O    0.85870   0.87219   0.58978   1.000
    O687    O    0.83662   0.91706   0.59553   1.000
    O688    O    0.99059   0.78202   0.58885   1.000
    O689    O    0.49057   0.78203   0.58887   1.000
    O690    O    0.01959   0.65683   0.60754   1.000
    O691    O    0.06058   0.64543   0.60834   1.000
    O692    O    0.51954   0.65681   0.60752   1.000
    O693    O    0.56052   0.64542   0.60835   1.000
    O694    O    0.32133   0.42562   0.64540   1.000
    O695    O    0.82129   0.42564   0.64545   1.000
    O696    O    0.78966   0.39301   0.64567   1.000
    O697    O    0.28971   0.39300   0.64569   1.000
    O698    O    0.14399   0.03719   0.64556   1.000
    O699    O    0.64397   0.03719   0.64558   1.000
    O700    O    0.27394   0.45403   0.65158   1.000
    O701    O    0.22793   0.48160   0.66025   1.000
    O702    O    0.26058   0.52857   0.66312   1.000
    O703    O    0.77390   0.45405   0.65161   1.000
    O704    O    0.72790   0.48163   0.66027   1.000
    O705    O    0.76055   0.52860   0.66316   1.000
    O706    O    0.60298   0.04941   0.65701   1.000
    O707    O    0.63368   0.10515   0.68455   1.000
    O708    O    0.10300   0.04940   0.65699   1.000
    O709    O    0.13370   0.10515   0.68453   1.000
    O710    O    0.29311   0.57879   0.66758   1.000
    O711    O    0.79309   0.57882   0.66764   1.000
    O712    O    0.30093   0.43985   0.69437   1.000
    O713    O    0.80088   0.43985   0.69440   1.000
    O714    O    0.93072   0.55199   0.68806   1.000
    O715    O    0.43073   0.55199   0.68808   1.000
    O716    O    0.25324   0.59540   0.67822   1.000
    O717    O    0.75321   0.59543   0.67827   1.000
    O718    O    0.97633   0.53446   0.69409   1.000
    O719    O    0.02710   0.51623   0.70427   1.000
    O720    O    0.47632   0.53445   0.69410   1.000
    O721    O    0.52709   0.51620   0.70428   1.000
    O722    O    0.22138   0.16389   0.70030   1.000
    O723    O    0.72137   0.16388   0.70038   1.000
    O724    O    0.27532   0.58969   0.71734   1.000
    O725    O    0.77529   0.58971   0.71740   1.000
    O726    O    0.57216   0.50184   0.71666   1.000
    O727    O    0.07218   0.50188   0.71666   1.000
    O728    O    0.93922   0.56353   0.75296   1.000
    O729    O    0.43923   0.56352   0.75298   1.000
    O730    O    0.17242   0.16686   0.72113   1.000
    O731    O    0.12000   0.17739   0.75046   1.000
    O732    O    0.67241   0.16686   0.72121   1.000
    O733    O    0.61999   0.17739   0.75049   1.000
    O734    O    0.20920   0.22632   0.75278   1.000
    O735    O    0.70920   0.22631   0.75285   1.000
    O736    O    0.46755   0.30563   0.74543   1.000
    O737    O    0.96758   0.30566   0.74545   1.000
    O738    O    0.45630   0.35438   0.74735   1.000
    O739    O    0.95632   0.35440   0.74735   1.000
    O740    O    0.54243   0.52649   0.77357   1.000
    O741    O    0.04244   0.52653   0.77360   1.000
    O742    O    0.98229   0.35459   0.78020   1.000
    O743    O    0.94060   0.34840   0.80244   1.000
    O744    O    0.48795   0.35455   0.78019   1.000
    O745    O    0.44059   0.34837   0.80244   1.000
    O746    O    0.07402   0.19327   0.78205   1.000
    O747    O    0.10604   0.24709   0.81059   1.000
    O748    O    0.57400   0.19329   0.78207   1.000
    O749    O    0.60603   0.24711   0.81061   1.000
    O750    O    0.23895   0.28319   0.78508   1.000
    O751    O    0.19389   0.29563   0.81186   1.000
    O752    O    0.73895   0.28317   0.78511   1.000
    O753    O    0.69389   0.29563   0.81189   1.000
    O754    O    0.90720   0.58885   0.80685   1.000
    O755    O    0.95321   0.57315   0.82268   1.000
    O756    O    0.40722   0.58884   0.80687   1.000
    O757    O    0.45322   0.57313   0.82270   1.000
    O758    O    0.39461   0.33970   0.82137   1.000
    O759    O    0.89463   0.33972   0.82138   1.000
    O760    O    0.50566   0.55434   0.83311   1.000
    O761    O    0.55463   0.53644   0.83599   1.000
    O762    O    0.00566   0.55438   0.83314   1.000
    O763    O    0.05464   0.53649   0.83602   1.000
    O764    O    0.40733   0.40430   0.86523   1.000
    O765    O    0.42731   0.33673   0.86540   1.000
    O766    O    0.90733   0.40433   0.86523   1.000
    O767    O    0.92732   0.33677   0.86542   1.000
    O768    O    0.14314   0.30589   0.84035   1.000
    O769    O    0.09757   0.31199   0.86396   1.000
    O770    O    0.64313   0.30590   0.84037   1.000
    O771    O    0.59756   0.31200   0.86398   1.000
    O772    O    0.18193   0.38743   0.88136   1.000
    O773    O    0.68193   0.38744   0.88138   1.000
    O774    O    0.89016   0.46267   0.86969   1.000
    O775    O    0.39017   0.46266   0.86970   1.000
    O776    O    0.96693   0.57948   0.89492   1.000
    O777    O    0.46695   0.57944   0.89494   1.000
    O778    O    0.44209   0.28242   0.87219   1.000
    O779    O    0.94211   0.28248   0.87223   1.000
    O780    O    0.19527   0.49540   0.89332   1.000
    O781    O    0.69524   0.49541   0.89334   1.000
    O782    O    0.92446   0.48083   0.91920   1.000
    O783    O    0.86869   0.45862   0.92085   1.000
    O784    O    0.42447   0.48080   0.91921   1.000
    O785    O    0.36869   0.45860   0.92083   1.000
    O786    O    0.45990   0.33214   0.91105   1.000
    O787    O    0.42004   0.32154   0.91707   1.000
    O788    O    0.95991   0.33220   0.91110   1.000
    O789    O    0.92004   0.32159   0.91710   1.000
    O790    O    0.74181   0.43603   0.91539   1.000
    O791    O    0.81557   0.44210   0.92887   1.000
    O792    O    0.24182   0.43601   0.91539   1.000
    O793    O    0.31557   0.44207   0.92887   1.000
    O794    O    0.14162   0.46687   0.94599   1.000
    O795    O    0.64161   0.46687   0.94598   1.000
    O796    O    0.97238   0.49324   0.93743   1.000
    O797    O    0.47239   0.49320   0.93744   1.000
    O798    O    0.95467   0.54922   0.94284   1.000
    O799    O    0.93624   0.60765   0.95073   1.000
    O800    O    0.97723   0.60841   0.96282   1.000
    O801    O    0.45469   0.54918   0.94285   1.000
    O802    O    0.43626   0.60762   0.95074   1.000
    O803    O    0.47725   0.60836   0.96287   1.000
loop_
    _geom_bond_atom_site_label_1
    _geom_bond_atom_site_label_2
    _geom_bond_distance
    _geom_bond_site_symmetry_2
    _ccdc_geom_bond_type
    C112   O384      0.54945      .   S
    C268   O384      0.54945      .   S
    C113   O385      0.54944      .   S
    C269   O385      0.54944      .   S
    C361   O386      1.12352      .   S
    C1     O386      1.12352      .   S
    C361   O387      0.63815  1_554   S
    C205   O387      0.63815      .   S
    C360   O388      1.12332      .   S
    C0     O388      1.12332      .   S
    C360   O389      0.63856  1_554   S
    C204   O389      0.63856      .   S
    C114   O390      0.54937      .   S
    C268   O390      0.54937      .   S
    C115   O391      0.54937      .   S
    C269   O391      0.54937      .   S
    C270   O392      0.63247      .   S
    C374   O392      0.63247      .   S
    C270   O393      0.77056      .   S
    C272   O393      0.77056      .   S
    C270   O394      0.63815      .   S
    C372   O394      0.63815  1_556   S
    C271   O395      0.63245      .   S
    C375   O395      0.63245      .   S
    C271   O396      0.77058      .   S
    C273   O396      0.77058      .   S
    C271   O397      0.63859      .   S
    C373   O397      0.63859  1_556   S
    C338   O398      0.74590      .   S
    C268   O398      0.74590      .   S
    C338   O399      0.51656      .   S
    C102   O399      0.51656      .   S
    C338   O400      0.74345      .   S
    C272   O400      0.74345      .   S
    C338   O401      1.05607  1_554   S
    C6     O401      1.05607      .   S
    C339   O402      0.74590      .   S
    C269   O402      0.74590      .   S
    C339   O403      0.51656      .   S
    C103   O403      0.51656      .   S
    C339   O404      0.74348      .   S
    C273   O404      0.74348      .   S
    C339   O405      1.05602  1_554   S
    C7     O405      1.05602      .   S
    C122   O406      0.54912      .   S
    C276   O406      0.54912      .   S
    C123   O407      0.54913      .   S
    C277   O407      0.54913      .   S
    C268   O408      0.75383      .   S
    C264   O408      0.75383      .   S
    C269   O409      0.75387      .   S
    C265   O409      0.75387      .   S
    C124   O410      0.54996      .   S
    C276   O410      0.54996      .   S
    C125   O411      0.54995      .   S
    C277   O411      0.54995      .   S
    C0     O412      1.08623      .   S
    C375   O412      1.08623      .   S
    C0     O413      1.11508      .   S
    C348   O413      1.11508      .   S
    C0     O414      1.04082      .   S
    C344   O414      1.04082      .   S
    C0     O415      1.05534      .   S
    C326   O415      1.05534  1_556   S
    C1     O416      1.08655      .   S
    C374   O416      1.08655  1_455   S
    C1     O417      1.11450      .   S
    C349   O417      1.11450      .   S
    C1     O418      1.04065      .   S
    C345   O418      1.04065      .   S
    C1     O419      1.05601      .   S
    C327   O419      1.05601  1_556   S
    C276   O420      0.54931      .   S
    C120   O420      0.54931      .   S
    C276   O421      0.76526      .   S
    C274   O421      0.76526      .   S
    C277   O422      0.54931      .   S
    C121   O422      0.54931      .   S
    C277   O423      0.76521      .   S
    C275   O423      0.76521      .   S
    C272   O424      0.55133      .   S
    C116   O424      0.55133      .   S
    C272   O425      0.77186      .   S
    C274   O425      0.77186      .   S
    C273   O426      0.55126      .   S
    C117   O426      0.55126      .   S
    C273   O427      0.77185      .   S
    C275   O427      0.77185      .   S
    C167   O428      0.54384      .   S
    C305   O428      0.54384      .   S
    C166   O429      0.54384      .   S
    C304   O429      0.54384      .   S
    C110   O430      0.54564      .   S
    C266   O430      0.54564      .   S
    C111   O431      0.54566      .   S
    C267   O431      0.54566      .   S
    C264   O432      0.69993      .   S
    C266   O432      0.69993      .   S
    C264   O433      0.69953      .   S
    C262   O433      0.69953      .   S
    C265   O434      0.69993      .   S
    C267   O434      0.69993      .   S
    C265   O435      0.69953      .   S
    C263   O435      0.69953      .   S
    C345   O436      0.67488      .   S
    C305   O436      0.67488      .   S
    C345   O437      0.67706      .   S
    C303   O437      0.67706      .   S
    C344   O438      0.67489      .   S
    C304   O438      0.67489      .   S
    C344   O439      0.67706      .   S
    C302   O439      0.67706      .   S
    C305   O440      0.69514      .   S
    C307   O440      0.69514      .   S
    C304   O441      0.69513      .   S
    C306   O441      0.69513      .   S
    C274   O442      0.54962      .   S
    C118   O442      0.54962      .   S
    C274   O443      0.76519      .   S
    C278   O443      0.76519      .   S
    C275   O444      0.54942      .   S
    C119   O444      0.54942      .   S
    C275   O445      0.76521      .   S
    C279   O445      0.76521      .   S
    C108   O446      0.54518      .   S
    C262   O446      0.54518      .   S
    C109   O447      0.54516      .   S
    C263   O447      0.54516      .   S
    C266   O448      0.69369      .   S
    C258   O448      0.69369      .   S
    C267   O449      0.69330      .   S
    C259   O449      0.69330      .   S
    C262   O450      0.69507      .   S
    C260   O450      0.69507      .   S
    C263   O451      0.69509      .   S
    C261   O451      0.69509      .   S
    C127   O452      0.55003      .   S
    C279   O452      0.55003      .   S
    C126   O453      0.55004      .   S
    C278   O453      0.55004      .   S
    C165   O454      0.54392      .   S
    C302   O454      0.54392      .   S
    C164   O455      0.54414  1_455   S
    C303   O455      0.54414      .   S
    C303   O456      0.69370      .   S
    C311   O456      0.69370      .   S
    C302   O457      0.69370      .   S
    C310   O457      0.69370      .   S
    C168   O458      0.54533      .   S
    C306   O458      0.54533      .   S
    C169   O459      0.54517      .   S
    C307   O459      0.54517      .   S
    C307   O460      0.69956      .   S
    C309   O460      0.69956      .   S
    C306   O461      0.69959      .   S
    C308   O461      0.69959      .   S
    C279   O462      0.54982      .   S
    C129   O462      0.54982      .   S
    C279   O463      0.54918      .   S
    C131   O463      0.54918      .   S
    C278   O464      0.54979      .   S
    C128   O464      0.54979      .   S
    C278   O465      0.54919      .   S
    C130   O465      0.54919      .   S
    C151   O466      0.54928      .   S
    C299   O466      0.54928      .   S
    C150   O467      0.54934      .   S
    C298   O467      0.54934      .   S
    C259   O468      0.54403      .   S
    C105   O468      0.54403      .   S
    C259   O469      0.67739      .   S
    C337   O469      0.67739      .   S
    C258   O470      0.54393      .   S
    C104   O470      0.54393      .   S
    C258   O471      0.67706      .   S
    C336   O471      0.67706      .   S
    C161   O472      0.54917      .   S
    C301   O472      0.54917      .   S
    C160   O473      0.54924      .   S
    C300   O473      0.54924      .   S
    C310   O474      0.69993      .   S
    C308   O474      0.69993      .   S
    C310   O475      0.54567      .   S
    C170   O475      0.54567      .   S
    C311   O476      0.69994      .   S
    C309   O476      0.69994      .   S
    C311   O477      0.54565      .   S
    C171   O477      0.54565      .   S
    C308   O478      0.75382      .   S
    C312   O478      0.75382      .   S
    C309   O479      0.75363      .   S
    C313   O479      0.75363      .   S
    C260   O480      0.67485      .   S
    C336   O480      0.67485      .   S
    C260   O481      0.54387      .   S
    C106   O481      0.54387      .   S
    C261   O482      0.67486      .   S
    C337   O482      0.67486      .   S
    C261   O483      0.54372      .   S
    C107   O483      0.54372      .   S
    C299   O484      0.54917      .   S
    C152   O484      0.54917      .   S
    C299   O485      0.54998      .   S
    C155   O485      0.54998      .   S
    C299   O486      0.76520      .   S
    C296   O486      0.76520      .   S
    C298   O487      0.54931      .   S
    C153   O487      0.54931  1_655   S
    C298   O488      0.54992      .   S
    C154   O488      0.54992      .   S
    C298   O489      0.76528      .   S
    C297   O489      0.76528  1_655   S
    C336   O490      1.04061      .   S
    C2     O490      1.04061      .   S
    C337   O491      1.04064      .   S
    C3     O491      1.04064      .   S
    C148   O492      0.54961      .   S
    C296   O492      0.54961      .   S
    C149   O493      0.54957      .   S
    C297   O493      0.54957      .   S
    C352   O494      1.11468      .   S
    C4     O494      1.11468      .   S
    C353   O495      1.11460      .   S
    C5     O495      1.11460      .   S
    C174   O496      0.54937      .   S
    C312   O496      0.54937      .   S
    C175   O497      0.54910      .   S
    C313   O497      0.54910      .   S
    C301   O498      0.76523      .   S
    C296   O498      0.76523      .   S
    C301   O499      0.54982      .   S
    C159   O499      0.54982      .   S
    C301   O500      0.55007      .   S
    C157   O500      0.55007      .   S
    C300   O501      0.76537      .   S
    C297   O501      0.76537  1_655   S
    C300   O502      0.54982      .   S
    C158   O502      0.54982      .   S
    C300   O503      0.55001      .   S
    C156   O503      0.55001      .   S
    C313   O504      0.54928      .   S
    C173   O504      0.54928      .   S
    C313   O505      0.74654      .   S
    C347   O505      0.74654      .   S
    C312   O506      0.54944      .   S
    C172   O506      0.54944      .   S
    C312   O507      0.74593      .   S
    C346   O507      0.74593      .   S
    C296   O508      0.77188      .   S
    C294   O508      0.77188      .   S
    C297   O509      0.77184      .   S
    C295   O509      0.77184      .   S
    C188   O510      0.54976      .   S
    C322   O510      0.54976      .   S
    C189   O511      0.54980      .   S
    C323   O511      0.54980      .   S
    C52    O512      0.54944      .   S
    C224   O512      0.54944      .   S
    C53    O513      0.54945      .   S
    C225   O513      0.54945      .   S
    C54    O514      0.54939      .   S
    C224   O514      0.54939      .   S
    C55    O515      0.54937      .   S
    C225   O515      0.54937      .   S
    C176   O516      0.55128      .   S
    C316   O516      0.55128      .   S
    C177   O517      0.55131      .   S
    C317   O517      0.55131      .   S
    C92    O518      0.54916      .   S
    C254   O518      0.54916      .   S
    C93    O519      0.54916      .   S
    C255   O519      0.54916      .   S
    C90    O520      0.54935      .   S
    C254   O520      0.54935      .   S
    C91    O521      0.54933      .   S
    C255   O521      0.54933      .   S
    C49    O522      0.54498      .   S
    C219   O522      0.54498      .   S
    C48    O523      0.54517      .   S
    C218   O523      0.54517      .   S
    C224   O524      0.75329      .   S
    C220   O524      0.75329      .   S
    C224   O525      0.74588      .   S
    C330   O525      0.74588      .   S
    C225   O526      0.75378      .   S
    C221   O526      0.75378      .   S
    C225   O527      0.74588      .   S
    C331   O527      0.74588      .   S
    C94    O528      0.54996      .   S
    C254   O528      0.54996      .   S
    C95    O529      0.54996      .   S
    C255   O529      0.54996      .   S
    C378   O530      1.08628      .   S
    C2     O530      1.08628      .   S
    C378   O531      0.63273      .   S
    C292   O531      0.63273      .   S
    C379   O532      1.08616      .   S
    C3     O532      1.08616      .   S
    C379   O533      0.63249      .   S
    C293   O533      0.63249      .   S
    C219   O534      0.69942      .   S
    C221   O534      0.69942      .   S
    C219   O535      0.69548      .   S
    C217   O535      0.69548      .   S
    C218   O536      0.69980      .   S
    C220   O536      0.69980      .   S
    C218   O537      0.69506      .   S
    C216   O537      0.69506      .   S
    C254   O538      0.76520      .   S
    C252   O538      0.76520      .   S
    C255   O539      0.76522      .   S
    C253   O539      0.76522      .   S
    C187   O540      0.55006      .   S
    C323   O540      0.55006      .   S
    C186   O541      0.55003      .   S
    C322   O541      0.55003      .   S
    C322   O542      0.54923      .   S
    C190   O542      0.54923      .   S
    C322   O543      0.76525      .   S
    C318   O543      0.76525      .   S
    C323   O544      0.54917      .   S
    C191   O544      0.54917      .   S
    C323   O545      0.76523      .   S
    C319   O545      0.76523      .   S
    C220   O546      0.70024      .   S
    C222   O546      0.70024      .   S
    C221   O547      0.69994      .   S
    C223   O547      0.69994      .   S
    C346   O548      0.74349      .   S
    C316   O548      0.74349      .   S
    C346   O549      0.51657      .   S
    C162   O549      0.51657      .   S
    C346   O550      1.05601  1_565   S
    C10    O550      1.05601      .   S
    C347   O551      0.74351      .   S
    C317   O551      0.74351      .   S
    C347   O552      0.51654      .   S
    C163   O552      0.51654      .   S
    C347   O553      1.05602  1_565   S
    C11    O553      1.05602      .   S
    C316   O554      0.77187      .   S
    C318   O554      0.77187      .   S
    C316   O555      0.77068      .   S
    C314   O555      0.77068      .   S
    C317   O556      0.77183      .   S
    C319   O556      0.77183      .   S
    C317   O557      0.77066      .   S
    C315   O557      0.77066      .   S
    C47    O558      0.54382      .   S
    C217   O558      0.54382      .   S
    C46    O559      0.54385      .   S
    C216   O559      0.54385      .   S
    C216   O560      0.67488      .   S
    C328   O560      0.67488      .   S
    C217   O561      0.67485      .   S
    C329   O561      0.67485      .   S
    C294   O562      0.77059      .   S
    C292   O562      0.77059      .   S
    C294   O563      0.55134      .   S
    C146   O563      0.55134      .   S
    C294   O564      0.74345      .   S
    C343   O564      0.74345      .   S
    C295   O565      0.77063      .   S
    C293   O565      0.77063      .   S
    C295   O566      0.55131      .   S
    C147   O566      0.55131      .   S
    C295   O567      0.74363  1_655   S
    C342   O567      0.74363      .   S
    C2     O568      1.12372      .   S
    C364   O568      1.12372      .   S
    C2     O569      1.05614      .   S
    C330   O569      1.05614      .   S
    C2     O570      1.11448      .   S
    C350   O570      1.11448      .   S
    C3     O571      1.12372      .   S
    C365   O571      1.12372      .   S
    C3     O572      1.05617      .   S
    C331   O572      1.05617      .   S
    C3     O573      1.11446      .   S
    C351   O573      1.11446      .   S
    C222   O574      0.54566      .   S
    C50    O574      0.54566      .   S
    C222   O575      0.69364      .   S
    C214   O575      0.69364      .   S
    C223   O576      0.54564      .   S
    C51    O576      0.54564      .   S
    C223   O577      0.69369      .   S
    C215   O577      0.69369      .   S
    C356   O578      1.11460      .   S
    C8     O578      1.11460      .   S
    C357   O579      1.11453      .   S
    C9     O579      1.11453      .   S
    C292   O580      0.63815      .   S
    C376   O580      0.63815      .   S
    C293   O581      0.63808      .   S
    C377   O581      0.63808      .   S
    C4     O582      1.12297      .   S
    C368   O582      1.12297      .   S
    C4     O583      1.08644      .   S
    C382   O583      1.08644      .   S
    C4     O584      1.04057      .   S
    C340   O584      1.04057      .   S
    C4     O585      1.05599      .   S
    C334   O585      1.05599  1_545   S
    C5     O586      1.12296      .   S
    C369   O586      1.12296      .   S
    C5     O587      1.08649      .   S
    C383   O587      1.08649      .   S
    C5     O588      1.04055      .   S
    C341   O588      1.04055      .   S
    C5     O589      1.05597      .   S
    C335   O589      1.05597  1_545   S
    C133   O590      0.51656      .   S
    C343   O590      0.51656      .   S
    C132   O591      0.51653      .   S
    C342   O591      0.51653      .   S
    C364   O592      0.63817      .   S
    C226   O592      0.63817      .   S
    C365   O593      0.63769      .   S
    C227   O593      0.63769      .   S
    C328   O594      0.67707      .   S
    C214   O594      0.67707      .   S
    C328   O595      1.04071      .   S
    C10    O595      1.04071      .   S
    C329   O596      0.67706      .   S
    C215   O596      0.67706      .   S
    C329   O597      1.04073      .   S
    C11    O597      1.04073      .   S
    C318   O598      0.54960      .   S
    C178   O598      0.54960      .   S
    C318   O599      0.76523      .   S
    C320   O599      0.76523      .   S
    C319   O600      0.54962      .   S
    C179   O600      0.54962      .   S
    C319   O601      0.76523      .   S
    C321   O601      0.76523      .   S
    C314   O602      0.63243      .   S
    C382   O602      0.63243      .   S
    C314   O603      0.63795      .   S
    C380   O603      0.63795  1_545   S
    C315   O604      0.63246      .   S
    C383   O604      0.63246      .   S
    C315   O605      0.63794      .   S
    C381   O605      0.63794  1_545   S
    C214   O606      0.54393      .   S
    C44    O606      0.54393      .   S
    C215   O607      0.54387      .   S
    C45    O607      0.54387      .   S
    C368   O608      0.63792  1_565   S
    C248   O608      0.63792      .   S
    C369   O609      0.63792  1_565   S
    C249   O609      0.63792      .   S
    C134   O610      0.54394      .   S
    C280   O610      0.54394      .   S
    C135   O611      0.54393      .   S
    C281   O611      0.54393      .   S
    C330   O612      0.51657      .   S
    C42    O612      0.51657      .   S
    C330   O613      0.74349      .   S
    C228   O613      0.74349      .   S
    C331   O614      0.51657      .   S
    C43    O614      0.51657      .   S
    C331   O615      0.74334      .   S
    C229   O615      0.74334      .   S
    C342   O616      1.05616      .   S
    C8     O616      1.05616      .   S
    C342   O617      0.74586      .   S
    C290   O617      0.74586      .   S
    C343   O618      1.05613      .   S
    C9     O618      1.05613      .   S
    C343   O619      0.74585      .   S
    C291   O619      0.74585      .   S
    C371   O620      0.63262      .   S
    C248   O620      0.63262  1_455   S
    C371   O621      1.08632      .   S
    C11    O621      1.08632      .   S
    C370   O622      0.63242      .   S
    C249   O622      0.63242      .   S
    C370   O623      1.08628      .   S
    C10    O623      1.08628      .   S
    C380   O624      1.12334      .   S
    C10    O624      1.12334      .   S
    C381   O625      1.12333      .   S
    C11    O625      1.12333      .   S
    C280   O626      0.67709      .   S
    C340   O626      0.67709      .   S
    C280   O627      0.69365      .   S
    C288   O627      0.69365      .   S
    C281   O628      0.67709      .   S
    C341   O628      0.67709      .   S
    C281   O629      0.69366      .   S
    C289   O629      0.69366      .   S
    C248   O630      0.77063      .   S
    C250   O630      0.77063      .   S
    C249   O631      0.77063      .   S
    C251   O631      0.77063      .   S
    C88    O632      0.54959      .   S
    C252   O632      0.54959      .   S
    C89    O633      0.54961      .   S
    C253   O633      0.54961      .   S
    C252   O634      0.77182      .   S
    C250   O634      0.77182      .   S
    C252   O635      0.76522      .   S
    C256   O635      0.76522      .   S
    C253   O636      0.77185      .   S
    C251   O636      0.77185      .   S
    C253   O637      0.76523      .   S
    C257   O637      0.76523      .   S
    C340   O638      0.67489      .   S
    C282   O638      0.67489      .   S
    C341   O639      0.67487      .   S
    C283   O639      0.67487      .   S
    C376   O640      1.12341      .   S
    C9     O640      1.12341      .   S
    C377   O641      1.12367      .   S
    C8     O641      1.12367  1_455   S
    C56    O642      0.55129      .   S
    C228   O642      0.55129      .   S
    C57    O643      0.55134      .   S
    C229   O643      0.55134      .   S
    C10    O644      1.11058      .   S
    C358   O644      1.11058      .   S
    C11    O645      1.11459      .   S
    C359   O645      1.11459      .   S
    C141   O646      0.54564      .   S
    C289   O646      0.54564      .   S
    C140   O647      0.54563      .   S
    C288   O647      0.54563      .   S
    C227   O648      0.77070      .   S
    C229   O648      0.77070      .   S
    C227   O649      0.63276      .   S
    C367   O649      0.63276      .   S
    C226   O650      0.77059      .   S
    C228   O650      0.77059      .   S
    C226   O651      0.63245      .   S
    C366   O651      0.63245      .   S
    C289   O652      0.69994      .   S
    C287   O652      0.69994      .   S
    C288   O653      0.69992      .   S
    C286   O653      0.69992      .   S
    C100   O654      0.55479      .   S
    C256   O654      0.55479      .   S
    C101   O655      0.54922      .   S
    C257   O655      0.54922      .   S
    C8     O656      1.08623      .   S
    C366   O656      1.08623      .   S
    C8     O657      1.04093      .   S
    C324   O657      1.04093      .   S
    C9     O658      1.08627      .   S
    C367   O658      1.08627      .   S
    C9     O659      1.04095      .   S
    C325   O659      1.04095      .   S
    C228   O660      0.77185      .   S
    C230   O660      0.77185      .   S
    C229   O661      0.77206      .   S
    C231   O661      0.77206      .   S
    C73    O662      0.51686      .   S
    C335   O662      0.51686      .   S
    C72    O663      0.51655      .   S
    C334   O663      0.51655      .   S
    C282   O664      0.54383      .   S
    C136   O664      0.54383  1_655   S
    C282   O665      0.69506      .   S
    C284   O665      0.69506      .   S
    C283   O666      0.54383      .   S
    C137   O666      0.54383      .   S
    C283   O667      0.69513      .   S
    C285   O667      0.69513      .   S
    C250   O668      0.74350      .   S
    C334   O668      0.74350      .   S
    C250   O669      0.55137      .   S
    C86    O669      0.55137      .   S
    C251   O670      0.74347      .   S
    C335   O670      0.74347      .   S
    C251   O671      0.55132      .   S
    C87    O671      0.55132      .   S
    C334   O672      0.74564      .   S
    C246   O672      0.74564      .   S
    C335   O673      0.74528      .   S
    C247   O673      0.74528      .   S
    C286   O674      0.69954      .   S
    C284   O674      0.69954      .   S
    C286   O675      0.75379      .   S
    C290   O675      0.75379      .   S
    C287   O676      0.69953      .   S
    C285   O676      0.69953      .   S
    C287   O677      0.75379      .   S
    C291   O677      0.75379      .   S
    C256   O678      0.55004      .   S
    C96    O678      0.55004      .   S
    C256   O679      0.54979      .   S
    C98    O679      0.54979      .   S
    C257   O680      0.55004      .   S
    C97    O680      0.55004      .   S
    C257   O681      0.54980      .   S
    C99    O681      0.54980      .   S
    C320   O682      0.54997      .   S
    C184   O682      0.54997      .   S
    C320   O683      0.54933      .   S
    C180   O683      0.54933      .   S
    C320   O684      0.54915      .   S
    C182   O684      0.54915      .   S
    C321   O685      0.54996      .   S
    C185   O685      0.54996      .   S
    C321   O686      0.54933      .   S
    C181   O686      0.54933      .   S
    C321   O687      0.54916      .   S
    C183   O687      0.54916      .   S
    C284   O688      0.54541  1_455   S
    C139   O688      0.54541      .   S
    C285   O689      0.54516      .   S
    C138   O689      0.54516      .   S
    C290   O690      0.54940      .   S
    C144   O690      0.54940  1_655   S
    C290   O691      0.54947      .   S
    C142   O691      0.54947      .   S
    C291   O692      0.54931      .   S
    C145   O692      0.54931      .   S
    C291   O693      0.54942      .   S
    C143   O693      0.54942      .   S
    C66    O694      0.55006      .   S
    C234   O694      0.55006      .   S
    C67    O695      0.55002      .   S
    C235   O695      0.55002      .   S
    C69    O696      0.54976      .   S
    C235   O696      0.54976      .   S
    C68    O697      0.54982      .   S
    C234   O697      0.54982      .   S
    C82    O698      0.54951      .   S
    C246   O698      0.54951      .   S
    C83    O699      0.54960      .   S
    C247   O699      0.54960      .   S
    C230   O700      0.76523      .   S
    C234   O700      0.76523      .   S
    C230   O701      0.54959      .   S
    C58    O701      0.54959      .   S
    C230   O702      0.76522      .   S
    C232   O702      0.76522      .   S
    C231   O703      0.76521      .   S
    C235   O703      0.76521      .   S
    C231   O704      0.54961      .   S
    C59    O704      0.54961      .   S
    C231   O705      0.76521      .   S
    C233   O705      0.76521      .   S
    C247   O706      0.54960      .   S
    C85    O706      0.54960      .   S
    C247   O707      0.75400      .   S
    C243   O707      0.75400      .   S
    C246   O708      0.54945      .   S
    C84    O708      0.54945      .   S
    C246   O709      0.75389      .   S
    C242   O709      0.75389      .   S
    C64    O710      0.54992      .   S
    C232   O710      0.54992      .   S
    C65    O711      0.54998      .   S
    C233   O711      0.54998      .   S
    C234   O712      0.54921      .   S
    C70    O712      0.54921      .   S
    C235   O713      0.54921      .   S
    C71    O713      0.54921      .   S
    C17    O714      0.54379      .   S
    C195   O714      0.54379      .   S
    C16    O715      0.54378      .   S
    C194   O715      0.54378      .   S
    C62    O716      0.54917      .   S
    C232   O716      0.54917      .   S
    C63    O717      0.54918      .   S
    C233   O717      0.54918      .   S
    C324   O718      0.67508  1_455   S
    C195   O718      0.67508      .   S
    C324   O719      0.67705      .   S
    C192   O719      0.67705      .   S
    C325   O720      0.67487      .   S
    C194   O720      0.67487      .   S
    C325   O721      0.67706      .   S
    C193   O721      0.67706      .   S
    C80    O722      0.54536      .   S
    C244   O722      0.54536      .   S
    C81    O723      0.54564      .   S
    C245   O723      0.54564      .   S
    C232   O724      0.54933      .   S
    C60    O724      0.54933      .   S
    C233   O725      0.54924      .   S
    C61    O725      0.54924      .   S
    C15    O726      0.54392      .   S
    C193   O726      0.54392      .   S
    C14    O727      0.54392      .   S
    C192   O727      0.54392      .   S
    C195   O728      0.69518      .   S
    C197   O728      0.69518      .   S
    C194   O729      0.69518      .   S
    C196   O729      0.69518      .   S
    C242   O730      0.70006      .   S
    C244   O730      0.70006      .   S
    C242   O731      0.69955      .   S
    C240   O731      0.69955      .   S
    C243   O732      0.69994      .   S
    C245   O732      0.69994      .   S
    C243   O733      0.69953      .   S
    C241   O733      0.69953      .   S
    C244   O734      0.69385      .   S
    C236   O734      0.69385      .   S
    C245   O735      0.69369      .   S
    C237   O735      0.69369      .   S
    C40    O736      0.54918      .   S
    C212   O736      0.54918      .   S
    C41    O737      0.54916      .   S
    C213   O737      0.54916      .   S
    C38    O738      0.54976      .   S
    C212   O738      0.54976      .   S
    C39    O739      0.54963      .   S
    C213   O739      0.54963      .   S
    C193   O740      0.69324      .   S
    C201   O740      0.69324      .   S
    C192   O741      0.69373      .   S
    C200   O741      0.69373      .   S
    C213   O742      0.44566      .   S
    C37    O742      0.44566  1_455   S
    C213   O743      0.76539      .   S
    C209   O743      0.76539      .   S
    C212   O744      0.55005      .   S
    C36    O744      0.55005      .   S
    C212   O745      0.76525      .   S
    C208   O745      0.76525      .   S
    C240   O746      0.54515      .   S
    C78    O746      0.54515      .   S
    C240   O747      0.69508      .   S
    C238   O747      0.69508      .   S
    C241   O748      0.54514      .   S
    C79    O748      0.54514      .   S
    C241   O749      0.69509      .   S
    C239   O749      0.69509      .   S
    C236   O750      0.54391      .   S
    C74    O750      0.54391      .   S
    C236   O751      0.67709      .   S
    C332   O751      0.67709      .   S
    C237   O752      0.54393      .   S
    C75    O752      0.54393      .   S
    C237   O753      0.67707      .   S
    C333   O753      0.67707      .   S
    C197   O754      0.54517      .   S
    C19    O754      0.54517      .   S
    C197   O755      0.69954      .   S
    C199   O755      0.69954      .   S
    C196   O756      0.54517      .   S
    C18    O756      0.54517      .   S
    C196   O757      0.69954      .   S
    C198   O757      0.69954      .   S
    C28    O758      0.54962      .   S
    C208   O758      0.54962      .   S
    C29    O759      0.54962      .   S
    C209   O759      0.54962      .   S
    C201   O760      0.70005      .   S
    C198   O760      0.70005      .   S
    C201   O761      0.54598      .   S
    C21    O761      0.54598      .   S
    C200   O762      0.70015      .   S
    C199   O762      0.70015  1_655   S
    C200   O763      0.54562      .   S
    C20    O763      0.54562      .   S
    C208   O764      0.77184      .   S
    C206   O764      0.77184      .   S
    C208   O765      0.76518      .   S
    C210   O765      0.76518      .   S
    C209   O766      0.77185      .   S
    C207   O766      0.77185      .   S
    C209   O767      0.76524      .   S
    C211   O767      0.76524      .   S
    C238   O768      0.67485      .   S
    C332   O768      0.67485      .   S
    C238   O769      0.54380      .   S
    C76    O769      0.54380      .   S
    C239   O770      0.67485      .   S
    C333   O770      0.67485      .   S
    C239   O771      0.54385      .   S
    C77    O771      0.54385      .   S
    C332   O772      1.04031      .   S
    C6     O772      1.04031      .   S
    C333   O773      1.04032      .   S
    C7     O773      1.04032      .   S
    C27    O774      0.55127      .   S
    C207   O774      0.55127      .   S
    C26    O775      0.55129      .   S
    C206   O775      0.55129      .   S
    C199   O776      0.75386      .   S
    C203   O776      0.75386      .   S
    C198   O777      0.75385      .   S
    C202   O777      0.75385      .   S
    C30    O778      0.54931      .   S
    C210   O778      0.54931      .   S
    C31    O779      0.54932      .   S
    C211   O779      0.54932      .   S
    C354   O780      1.11446      .   S
    C6     O780      1.11446      .   S
    C355   O781      1.11447      .   S
    C7     O781      1.11447      .   S
    C207   O782      0.74348      .   S
    C327   O782      0.74348      .   S
    C207   O783      0.77063      .   S
    C205   O783      0.77063      .   S
    C206   O784      0.74350      .   S
    C326   O784      0.74350      .   S
    C206   O785      0.77034      .   S
    C204   O785      0.77034      .   S
    C210   O786      0.54997      .   S
    C34    O786      0.54997      .   S
    C210   O787      0.54919      .   S
    C32    O787      0.54919      .   S
    C211   O788      0.54996      .   S
    C35    O788      0.54996      .   S
    C211   O789      0.54914      .   S
    C33    O789      0.54914      .   S
    C363   O790      1.08633      .   S
    C7     O790      1.08633      .   S
    C363   O791      0.63248      .   S
    C205   O791      0.63248      .   S
    C362   O792      1.08634      .   S
    C6     O792      1.08634      .   S
    C362   O793      0.63233      .   S
    C204   O793      0.63233      .   S
    C6     O794      1.12342      .   S
    C372   O794      1.12342      .   S
    C7     O795      1.12328      .   S
    C373   O795      1.12328      .   S
    C13    O796      0.51656      .   S
    C327   O796      0.51656      .   S
    C12    O797      0.51656      .   S
    C326   O797      0.51656      .   S
    C203   O798      0.74587      .   S
    C327   O798      0.74587      .   S
    C203   O799      0.54937      .   S
    C25    O799      0.54937      .   S
    C203   O800      0.54911      .   S
    C23    O800      0.54911      .   S
    C202   O801      0.74588      .   S
    C326   O801      0.74588      .   S
    C202   O802      0.54938      .   S
    C24    O802      0.54938      .   S
    C202   O803      0.54944      .   S
    C22    O803      0.54944      .   S
