# CIF file generated by openbabel 2.4.90, see http://openbabel.sf.net
data_I
_chemical_name_common ''
_cell_length_a 13.219
_cell_length_b 14.33
_cell_length_c 14.337
_cell_angle_alpha 77.767
_cell_angle_beta 62.589
_cell_angle_gamma 62.647
_space_group_name_H-M_alt 'P 1'
_space_group_name_Hall 'P 1'
loop_
    _symmetry_equiv_pos_as_xyz
    x,y,z
loop_
    _atom_site_label
    _atom_site_type_symbol
    _atom_site_fract_x
    _atom_site_fract_y
    _atom_site_fract_z
    _atom_site_occupancy
    C0      C    0.41072   0.41720   0.55624   1.000
    C1      C    0.88425   0.08269   0.94386   1.000
    C2      C    0.46697   0.44373   0.91723   1.000
    C3      C    0.32817   0.05606   0.58265   1.000
    C4      C    0.11571   0.05627   0.91724   1.000
    C5      C    0.58925   0.44385   0.58269   1.000
    C6      C    0.67176   0.41740   0.94392   1.000
    C7      C    0.53304   0.08274   0.55631   1.000
    C8      C    0.58931   0.58276   0.44375   1.000
    C9      C    0.11572   0.91731   0.05615   1.000
    C10     C    0.53302   0.55629   0.08275   1.000
    C11     C    0.67179   0.94393   0.41740   1.000
    C12     C    0.88425   0.94374   0.08277   1.000
    C13     C    0.41078   0.55612   0.41700   1.000
    C14     C    0.32822   0.58263   0.05607   1.000
    C15     C    0.46693   0.91723   0.44375   1.000
    C16     C    0.45420   0.49338   0.49344   1.000
    C17     C    0.94106   0.00652   0.00658   1.000
    C18     C    0.44766   0.50653   0.99340   1.000
    C19     C    0.44764   0.99339   0.50650   1.000
    C20     C    0.05889   0.99350   0.99345   1.000
    C21     C    0.54585   0.50656   0.50652   1.000
    C22     C    0.55232   0.49351   0.00657   1.000
    C23     C    0.55231   0.00657   0.49352   1.000
    I24     I    0.49986   0.15197   0.84807   1.000
    I25     I    0.00007   0.34761   0.65243   1.000
    I26     I    0.84725   0.15232   0.65234   1.000
    I27     I    0.15257   0.34779   0.84783   1.000
    I28     I    0.50010   0.84803   0.15196   1.000
    I29     I    0.99991   0.65240   0.34760   1.000
    I30     I    0.15272   0.84769   0.34766   1.000
    I31     I    0.84738   0.65222   0.15219   1.000
    N32     N    0.45473   0.35961   0.62707   1.000
    N33     N    0.94144   0.14041   0.87301   1.000
    N34     N    0.58170   0.37293   0.85971   1.000
    N35     N    0.31458   0.12689   0.64037   1.000
    N36     N    0.05858   0.12703   0.85956   1.000
    N37     N    0.54514   0.37301   0.64030   1.000
    N38     N    0.68535   0.35960   0.87317   1.000
    N39     N    0.41828   0.14028   0.62709   1.000
    N40     N    0.54522   0.64041   0.37297   1.000
    N41     N    0.05853   0.85959   0.12698   1.000
    N42     N    0.41828   0.62706   0.14031   1.000
    N43     N    0.68537   0.87314   0.35964   1.000
    N44     N    0.94140   0.87295   0.14044   1.000
    N45     N    0.45484   0.62699   0.35963   1.000
    N46     N    0.31462   0.64039   0.12687   1.000
    N47     N    0.58168   0.85972   0.37294   1.000
loop_
    _geom_bond_atom_site_label_1
    _geom_bond_atom_site_label_2
    _geom_bond_distance
    _geom_bond_site_symmetry_2
    _ccdc_geom_bond_type
    C22    C10       1.41997      .   S
    C22    C6        1.41991  1_554   S
    C22    C18       1.40462  1_554   S
    C17    C12       1.41978  1_545   S
    C17    C1        1.42009  1_554   S
    C17    C20       1.40501  1_644   S
    C14    N46       1.34124      .   S
    C14    C18       1.41990  1_554   S
    C9     N41       1.34115      .   S
    C9     C20       1.42006  1_554   S
    C10    N42       1.34112      .   S
    C12    N44       1.34125      .   S
    N46    N42       1.39218      .   S
    N41    N44       1.39263  1_455   S
    N45    N40       1.39211      .   S
    N45    C13       1.34006      .   S
    N43    N47       1.39219      .   S
    N43    C11       1.34118      .   S
    N47    C15       1.34116      .   S
    N40    C8        1.34116      .   S
    C13    C16       1.42342      .   S
    C11    C23       1.42002  1_565   S
    C15    C19       1.41939      .   S
    C8     C21       1.41997      .   S
    C16    C21       1.40458      .   S
    C16    C0        1.42000      .   S
    C23    C19       1.40459  1_545   S
    C23    C7        1.41998      .   S
    C19    C3        1.42032  1_565   S
    C21    C5        1.42000      .   S
    C0     N32       1.34106      .   S
    C7     N39       1.34110      .   S
    C3     N35       1.34117      .   S
    C5     N37       1.34079      .   S
    N32    N37       1.39144      .   S
    N39    N35       1.39218      .   S
    N36    N33       1.39268  1_455   S
    N36    C4        1.34110      .   S
    N34    N38       1.39225      .   S
    N34    C2        1.34112      .   S
    N33    C1        1.34121      .   S
    N38    C6        1.34116      .   S
    C2     C18       1.42001      .   S
    C4     C20       1.41984  1_545   S
