# CIF file generated by openbabel 2.4.90, see http://openbabel.sf.net
data_I
_chemical_name_common ''
_cell_length_a 14.565
_cell_length_b 15.855
_cell_length_c 18.856
_cell_angle_alpha 90.398
_cell_angle_beta 90.114
_cell_angle_gamma 90.004
_space_group_name_H-M_alt 'P 1'
_space_group_name_Hall 'P 1'
loop_
    _symmetry_equiv_pos_as_xyz
    x,y,z
loop_
    _atom_site_label
    _atom_site_type_symbol
    _atom_site_fract_x
    _atom_site_fract_y
    _atom_site_fract_z
    _atom_site_occupancy
    H0      H    0.34785   0.50827   0.03321   1.000
    H1      H    0.63337   0.29771   0.86425   1.000
    H2      H    0.65951   0.23569   0.74314   1.000
    H3      H    0.38791   0.12931   0.74586   1.000
    H4      H    0.36165   0.19131   0.86628   1.000
    H5      H    0.11084   0.61738   0.01121   1.000
    H6      H    0.05268   0.35192   0.01663   1.000
    H7      H    0.65130   0.99220   0.53382   1.000
    H8      H    0.36681   0.20217   0.36252   1.000
    H9      H    0.33985   0.26536   0.24258   1.000
    H10     H    0.61216   0.37028   0.24643   1.000
    H11     H    0.63935   0.30679   0.36556   1.000
    H12     H    0.88834   0.88191   0.50988   1.000
    H13     H    0.94724   0.14732   0.51773   1.000
    H14     H    0.64868   0.49026   0.96356   1.000
    H15     H    0.36480   0.70290   0.13268   1.000
    H16     H    0.33956   0.76504   0.25383   1.000
    H17     H    0.61211   0.86934   0.25069   1.000
    H18     H    0.63750   0.80711   0.13025   1.000
    H19     H    0.88816   0.38108   0.98563   1.000
    H20     H    0.94634   0.64653   0.00000   1.000
    H21     H    0.34861   0.00760   0.46308   1.000
    H22     H    0.63310   0.79698   0.63494   1.000
    H23     H    0.65950   0.73309   0.75467   1.000
    H24     H    0.38698   0.62870   0.74986   1.000
    H25     H    0.36044   0.69263   0.63088   1.000
    H26     H    0.11154   0.11766   0.48679   1.000
    H27     H    0.05261   0.85228   0.47889   1.000
    H28     H    0.15087   0.00632   0.96322   1.000
    H29     H    0.86623   0.79532   0.13427   1.000
    H30     H    0.83986   0.73183   0.25412   1.000
    H31     H    0.11292   0.62863   0.25083   1.000
    H32     H    0.13946   0.69225   0.13174   1.000
    H33     H    0.38817   0.11616   0.98608   1.000
    H34     H    0.44783   0.85090   0.00000   1.000
    H35     H    0.85107   0.49028   0.46356   1.000
    H36     H    0.13508   0.70220   0.63347   1.000
    H37     H    0.15985   0.76351   0.75507   1.000
    H38     H    0.88796   0.86923   0.75040   1.000
    H39     H    0.86295   0.80764   0.62958   1.000
    H40     H    0.61154   0.38155   0.48595   1.000
    H41     H    0.55338   0.64698   0.47990   1.000
    H42     H    0.84942   0.99160   0.03399   1.000
    H43     H    0.13375   0.20104   0.86235   1.000
    H44     H    0.16049   0.26467   0.74264   1.000
    H45     H    0.88808   0.36936   0.74615   1.000
    H46     H    0.86104   0.30525   0.86497   1.000
    H47     H    0.61212   0.88114   0.01034   1.000
    H48     H    0.55249   0.14642   0.01706   1.000
    H49     H    0.15232   0.50837   0.53346   1.000
    H50     H    0.86680   0.29802   0.36347   1.000
    H51     H    0.84087   0.23600   0.24225   1.000
    H52     H    0.11224   0.12914   0.24628   1.000
    H53     H    0.13829   0.19113   0.36681   1.000
    H54     H    0.38905   0.61795   0.51082   1.000
    H55     H    0.44720   0.35250   0.51692   1.000
    C56     C    0.47602   0.29284   0.94045   1.000
    C57     C    0.49557   0.24913   0.87183   1.000
    C58     C    0.58031   0.26054   0.83787   1.000
    C59     C    0.59475   0.22621   0.77071   1.000
    C60     C    0.52475   0.17994   0.73704   1.000
    C61     C    0.44121   0.16618   0.77213   1.000
    C62     C    0.42663   0.20066   0.83906   1.000
    C63     C    0.53727   0.14786   0.66315   1.000
    C64     C    0.18975   0.46621   0.03303   1.000
    C65     C    0.09119   0.48294   0.01604   1.000
    C66     C    0.06156   0.56613   0.00569   1.000
    C67     C    0.02857   0.41615   0.00862   1.000
    C68     C    0.52447   0.20618   0.43867   1.000
    C69     C    0.50497   0.24990   0.37051   1.000
    C70     C    0.41984   0.23922   0.33660   1.000
    C71     C    0.40494   0.27424   0.27013   1.000
    C72     C    0.47485   0.32061   0.23721   1.000
    C73     C    0.55892   0.33344   0.27221   1.000
    C74     C    0.57400   0.29811   0.33840   1.000
    C75     C    0.46159   0.35367   0.16411   1.000
    C76     C    0.80981   0.03352   0.53296   1.000
    C77     C    0.90829   0.01639   0.51592   1.000
    C78     C    0.93771   0.93307   0.50489   1.000
    C79     C    0.97111   0.08299   0.50918   1.000
    C80     C    0.52192   0.70650   0.05612   1.000
    C81     C    0.50304   0.75034   0.12486   1.000
    C82     C    0.41830   0.73961   0.15897   1.000
    C83     C    0.40434   0.77404   0.22617   1.000
    O84     O    0.03098   0.60377   0.35934   1.000
    O85     O    0.88701   0.65939   0.36434   1.000
    O86     O    0.28518   0.88565   0.96899   1.000
    O87     O    0.25723   0.00000   0.94728   1.000
    C88     C    0.47483   0.81979   0.25976   1.000
    C89     C    0.55840   0.83287   0.22452   1.000
    C90     C    0.57249   0.79825   0.15756   1.000
    C91     C    0.46262   0.85197   0.33367   1.000
    C92     C    0.80922   0.53238   0.96398   1.000
    C93     C    0.90781   0.51551   0.98088   1.000
    C94     C    0.93746   0.43233   0.99118   1.000
    C95     C    0.97045   0.58230   0.00000   1.000
    C96     C    0.47554   0.79355   0.55832   1.000
    C97     C    0.49487   0.74950   0.62640   1.000
    C98     C    0.57988   0.75987   0.66058   1.000
    C99     C    0.59448   0.72443   0.72695   1.000
    C100    C    0.52437   0.67806   0.75961   1.000
    C101    C    0.44043   0.66555   0.72434   1.000
    C102    C    0.42569   0.70117   0.65822   1.000
    C103    C    0.53715   0.64472   0.83273   1.000
    C104    C    0.19011   0.96616   0.46386   1.000
    C105    C    0.09157   0.98321   0.48077   1.000
    C106    C    0.06215   0.06653   0.49177   1.000
    C107    C    0.02875   0.91661   0.48747   1.000
    C108    C    0.02402   0.79246   0.05861   1.000
    C109    C    0.00475   0.74843   0.12658   1.000
    C110    C    0.91955   0.75855   0.16028   1.000
    C111    C    0.90496   0.72337   0.22669   1.000
    C112    C    0.97527   0.67748   0.25977   1.000
    C113    C    0.05938   0.66515   0.22494   1.000
    C114    C    0.07412   0.70054   0.15879   1.000
    C115    C    0.96260   0.64448   0.33292   1.000
    C116    C    0.30995   0.96436   0.96381   1.000
    C117    C    0.40852   0.98173   0.98066   1.000
    C118    C    0.43775   0.06519   0.99132   1.000
    C119    C    0.47155   0.91534   0.00000   1.000
    C120    C    0.97824   0.70658   0.55610   1.000
    C121    C    0.99714   0.75028   0.62493   1.000
    C122    C    0.08164   0.73902   0.65955   1.000
    C123    C    0.09531   0.77298   0.72698   1.000
    C124    C    0.02484   0.81885   0.76024   1.000
    C125    C    0.94160   0.83261   0.72446   1.000
    C126    C    0.92775   0.79838   0.65729   1.000
    C127    C    0.03671   0.85046   0.83437   1.000
    C128    C    0.69046   0.53270   0.46394   1.000
    C129    C    0.59192   0.51596   0.48084   1.000
    C130    C    0.56229   0.43282   0.49134   1.000
    C131    C    0.52931   0.58277   0.48804   1.000
    C132    C    0.97629   0.20467   0.93825   1.000
    C133    C    0.99550   0.24854   0.87015   1.000
    C134    C    0.08062   0.23811   0.83640   1.000
    C135    C    0.09542   0.27340   0.77006   1.000
    C136    C    0.02547   0.31989   0.73709   1.000
    C137    C    0.94139   0.33244   0.77193   1.000
    C138    C    0.92639   0.29678   0.83796   1.000
    C139    C    0.03865   0.35338   0.66413   1.000
    C140    C    0.69030   0.03300   0.03293   1.000
    C141    C    0.59180   0.01559   0.01582   1.000
    C142    C    0.56259   0.93213   0.00509   1.000
    C143    C    0.52878   0.08198   0.00874   1.000
    C144    C    0.02399   0.29287   0.44043   1.000
    C145    C    0.00448   0.24922   0.37171   1.000
    C146    C    0.91985   0.26076   0.33735   1.000
    C147    C    0.90553   0.22641   0.27013   1.000
    C148    C    0.97553   0.18000   0.23680   1.000
    C149    C    0.05896   0.16613   0.27229   1.000
    C150    C    0.07341   0.20063   0.33928   1.000
    C151    C    0.96301   0.14784   0.16289   1.000
    C152    C    0.31023   0.46673   0.53305   1.000
    C153    C    0.40868   0.48351   0.51599   1.000
    C154    C    0.43828   0.56666   0.50545   1.000
    C155    C    0.47127   0.41670   0.50876   1.000
    O156    O    0.40319   0.48083   0.00855   1.000
    O157    O    0.53984   0.33670   0.96886   1.000
    O158    O    0.39462   0.28466   0.96526   1.000
    O159    O    0.46898   0.10754   0.63581   1.000
    O160    O    0.61298   0.16318   0.63214   1.000
    O161    O    0.21470   0.38750   0.02800   1.000
    O162    O    0.24231   0.52636   0.04957   1.000
    O163    O    0.59581   0.01921   0.50913   1.000
    O164    O    0.46030   0.16270   0.46630   1.000
    O165    O    0.60585   0.21429   0.46388   1.000
    O166    O    0.52870   0.39614   0.13802   1.000
    O167    O    0.38648   0.33705   0.13231   1.000
    O168    O    0.78495   0.11219   0.52797   1.000
    O169    O    0.75728   0.97369   0.54949   1.000
    O170    O    0.59402   0.51842   0.98812   1.000
    O171    O    0.45741   0.66312   0.02803   1.000
    O172    O    0.60319   0.71416   0.03097   1.000
    O173    O    0.53099   0.89226   0.36096   1.000
    O174    O    0.38696   0.83675   0.36478   1.000
    O175    O    0.78463   0.61125   0.96908   1.000
    O176    O    0.75640   0.47246   0.94750   1.000
    O177    O    0.40414   0.98059   0.48772   1.000
    O178    O    0.53971   0.83714   0.53078   1.000
    O179    O    0.39417   0.78556   0.53306   1.000
    O180    O    0.46889   0.60384   0.85894   1.000
    O181    O    0.61281   0.65953   0.86434   1.000
    O182    O    0.21504   0.88752   0.46888   1.000
    O183    O    0.24261   0.00000   0.44743   1.000
    O184    O    0.09563   0.97941   0.98802   1.000
    O185    O    0.95926   0.83534   0.03075   1.000
    O186    O    0.10550   0.78533   0.03380   1.000
    O187    O    0.90588   0.51838   0.48812   1.000
    O188    O    0.04269   0.66318   0.52813   1.000
    O189    O    0.89694   0.71428   0.53080   1.000
    O190    O    0.96900   0.89205   0.86103   1.000
    O191    O    0.11148   0.83343   0.86633   1.000
    O192    O    0.71526   0.61151   0.46906   1.000
    O193    O    0.74308   0.47272   0.44745   1.000
    O194    O    0.90470   0.01831   0.00910   1.000
    O195    O    0.04111   0.16225   0.96641   1.000
    O196    O    0.89466   0.21167   0.96291   1.000
    O197    O    0.97151   0.39603   0.63806   1.000
    O198    O    0.11370   0.33697   0.63241   1.000
    O199    O    0.71499   0.11171   0.02784   1.000
    O200    O    0.74302   0.97336   0.04963   1.000
    O201    O    0.09683   0.48084   0.50883   1.000
    O202    O    0.96017   0.33668   0.46873   1.000
    O203    O    0.10542   0.28469   0.46544   1.000
    O204    O    0.03119   0.10743   0.13572   1.000
    O205    O    0.88724   0.16321   0.13172   1.000
    O206    O    0.28529   0.38801   0.52805   1.000
    O207    O    0.25773   0.52685   0.54963   1.000
loop_
    _geom_bond_atom_site_label_1
    _geom_bond_atom_site_label_2
    _geom_bond_distance
    _geom_bond_site_symmetry_2
    _ccdc_geom_bond_type
    H20    C95       1.07725      .   S
    H34    C119      1.07837      .   S
    C95    C66       1.35572  1_655   S
    C95    C93       1.44114  1_554   S
    C119   C142      1.35547      .   S
    C119   C117      1.44501  1_554   S
    C142   H47       1.08857      .   S
    C142   C141      1.40305  1_565   S
    C66    H5        1.08857      .   S
    C66    C65       1.40259      .   S
    O156   H0        1.02660      .   S
    C67    C65       1.40369      .   S
    C67    H6        1.08866      .   S
    C67    C94       1.39083  1_454   S
    C143   C141      1.40364      .   S
    C143   H48       1.08866      .   S
    C143   C118      1.39057  1_554   S
    O194   H42       1.02562  1_545   S
    C141   C140      1.49510      .   S
    C65    C64       1.49438      .   S
    O199   C140      1.30290      .   S
    O161   C64       1.30264      .   S
    O171   C80       1.27651      .   S
    O185   C108      1.27704  1_655   S
    O172   C80       1.28209      .   S
    C140   O200      1.25954  1_545   S
    C64    O162      1.26000      .   S
    O186   C108      1.28120      .   S
    C80    C81       1.49245      .   S
    C108   C109      1.49090      .   S
    C81    C90       1.40408      .   S
    C81    C82       1.40386      .   S
    C109   C114      1.40367      .   S
    C109   C110      1.40399  1_455   S
    H18    C90       1.08827      .   S
    O205   C151      1.27363      .   S
    H32    C114      1.08826      .   S
    O167   C75       1.27314      .   S
    H15    C82       1.08915      .   S
    H29    C110      1.08906      .   S
    O204   C151      1.28709  1_455   S
    O166   C75       1.28732      .   S
    C90    C89       1.38893      .   S
    C114   C113      1.38824      .   S
    C82    C83       1.39143      .   S
    C110   C111      1.39110      .   S
    C151   C148      1.49150      .   S
    C75    C72       1.49032      .   S
    C89    H17       1.08828      .   S
    C89    C88       1.40401      .   S
    C113   H31       1.08818      .   S
    C113   C112      1.40424  1_455   S
    C83    H16       1.08886      .   S
    C83    C88       1.40437      .   S
    C111   H30       1.08886      .   S
    C111   C112      1.40388      .   S
    C148   C147      1.40424      .   S
    C148   C149      1.40416  1_655   S
    C72    C71       1.40403      .   S
    C72    C73       1.40394      .   S
    H51    C147      1.08884      .   S
    H9     C71       1.08885      .   S
    H52    C149      1.08826      .   S
    H10    C73       1.08822      .   S
    C88    C91       1.49185      .   S
    C112   C115      1.49055      .   S
    C147   C146      1.39141      .   S
    C71    C70       1.39099      .   S
    C73    C74       1.38854      .   S
    C149   C150      1.38859      .   S
    C115   O84       1.28813  1_655   S
    C115   O85       1.27269      .   S
    C91    O173      1.28757      .   S
    C91    O174      1.27327      .   S
    C70    H8        1.08908      .   S
    C70    C69       1.40366      .   S
    C146   H50       1.08917      .   S
    C146   C145      1.40392  1_655   S
    C74    H11       1.08827      .   S
    C74    C69       1.40378      .   S
    C150   H53       1.08824      .   S
    C150   C145      1.40415      .   S
    C69    C68       1.49126      .   S
    C145   C144      1.49157      .   S
    C68    O165      1.28222      .   S
    C68    O164      1.27560      .   S
    C144   O203      1.28235      .   S
    C144   O202      1.27598  1_455   S
    O183   C104      0.98578  1_545   S
    O193   C128      1.25916      .   S
    H21    O177      1.02700  1_545   S
    H35    O187      1.02264      .   S
    C104   O182      1.30266      .   S
    C104   C105      1.49500      .   S
    C128   O192      1.30354      .   S
    C128   C129      1.49488      .   S
    H27    C107      1.08870      .   S
    H41    C131      1.08868      .   S
    C105   C107      1.40370      .   S
    C105   C106      1.40301  1_565   S
    C129   C131      1.40378      .   S
    C129   C130      1.40250      .   S
    H40    C130      1.08854      .   S
    H26    C106      1.08855      .   S
    C107   C78       1.39097  1_455   S
    C131   C154      1.39057      .   S
    C130   C155      1.39049      .   S
    C106   C79       1.39086  1_455   S
    C78    H12       1.08861      .   S
    C78    C77       1.40309  1_565   S
    C154   H54       1.08858      .   S
    C154   C153      1.40266      .   S
    C155   C153      1.40368      .   S
    C155   H55       1.08865      .   S
    O201   H49       1.02713      .   S
    O163   H7        1.02696  1_545   S
    C79    C77       1.40368      .   S
    C79    H13       1.08867      .   S
    C77    C76       1.49502      .   S
    C153   C152      1.49445      .   S
    O168   C76       1.30271      .   S
    O206   C152      1.30259      .   S
    O188   C120      1.27662  1_455   S
    O178   C96       1.27578      .   S
    O189   C120      1.28198      .   S
    C76    O169      1.25985  1_545   S
    C152   O207      1.26002      .   S
    O179   C96       1.28230      .   S
    C120   C121      1.49208      .   S
    C96    C97       1.49196      .   S
    C121   C126      1.40404      .   S
    C121   C122      1.40403  1_655   S
    C97    C102      1.40399      .   S
    C97    C98       1.40378      .   S
    H39    C126      1.08825      .   S
    H25    C102      1.08825      .   S
    O160   C63       1.27328      .   S
    O198   C139      1.27314      .   S
    H36    C122      1.08916      .   S
    H22    C98       1.08911      .   S
    O159   C63       1.28737      .   S
    O197   C139      1.28762  1_655   S
    C126   C125      1.38878      .   S
    C102   C101      1.38857      .   S
    C122   C123      1.39133      .   S
    C98    C99       1.39145      .   S
    C63    C60       1.49143      .   S
    C139   C136      1.49086      .   S
    C101   H24       1.08822      .   S
    C101   C100      1.40404      .   S
    C125   H38       1.08827      .   S
    C125   C124      1.40417  1_655   S
    C99    H23       1.08889      .   S
    C99    C100      1.40412      .   S
    C123   H37       1.08884      .   S
    C123   C124      1.40431      .   S
    C60    C59       1.40417      .   S
    C60    C61       1.40398      .   S
    C136   C135      1.40408      .   S
    C136   C137      1.40431  1_455   S
    H44    C135      1.08886      .   S
    H2     C59       1.08884      .   S
    H3     C61       1.08823      .   S
    H45    C137      1.08823      .   S
    C100   C103      1.49140      .   S
    C124   C127      1.49135      .   S
    C135   C134      1.39112      .   S
    C59    C58       1.39139      .   S
    C137   C138      1.38871      .   S
    C61    C62       1.38858      .   S
    C103   O180      1.28796      .   S
    C103   O181      1.27287      .   S
    C127   O190      1.28752  1_455   S
    C127   O191      1.27348      .   S
    C134   H43       1.08907      .   S
    C134   C133      1.40402  1_455   S
    C58    H1        1.08918      .   S
    C58    C57       1.40371      .   S
    C138   H46       1.08829      .   S
    C138   C133      1.40380      .   S
    C62    H4        1.08823      .   S
    C62    C57       1.40404      .   S
    C133   C132      1.49167      .   S
    C57    C56       1.49153      .   S
    C132   O196      1.28190      .   S
    C132   O195      1.27618  1_655   S
    C56    O158      1.28228      .   S
    C56    O157      1.27575      .   S
    O87    C116      1.00383  1_545   S
    O176   C92       1.25929      .   S
    H28    O184      1.02576  1_545   S
    H14    O170      1.02286      .   S
    C116   O86       1.30342      .   S
    C116   C117      1.49481      .   S
    C92    O175      1.30368      .   S
    C92    C93       1.49475      .   S
    C117   C118      1.40311  1_565   S
    C93    C94       1.40255      .   S
    H19    C94       1.08864      .   S
    H33    C118      1.08858      .   S
