# CIF file generated by openbabel 2.4.90, see http://openbabel.sf.net
data_I
_chemical_name_common ''
_cell_length_a 14.565
_cell_length_b 15.855
_cell_length_c 18.856
_cell_angle_alpha 90.398
_cell_angle_beta 90.114
_cell_angle_gamma 90.004
_space_group_name_H-M_alt 'P 1'
_space_group_name_Hall 'P 1'
loop_
    _symmetry_equiv_pos_as_xyz
    x,y,z
loop_
    _atom_site_label
    _atom_site_type_symbol
    _atom_site_fract_x
    _atom_site_fract_y
    _atom_site_fract_z
    _atom_site_occupancy
    Zn0     Zn   0.34347   0.36341   0.03424   1.000
    Zn1     Zn   0.46927   0.07102   0.53826   1.000
    Zn2     Zn   0.65612   0.13676   0.53394   1.000
    Zn3     Zn   0.46858   0.56997   0.95675   1.000
    Zn4     Zn   0.65569   0.63422   0.96285   1.000
    Zn5     Zn   0.53076   0.92867   0.45859   1.000
    Zn6     Zn   0.34391   0.86311   0.46301   1.000
    Zn7     Zn   0.96901   0.92649   0.95922   1.000
    Zn8     Zn   0.15606   0.86245   0.96346   1.000
    Zn9     Zn   0.03139   0.56991   0.45696   1.000
    Zn10    Zn   0.84423   0.63420   0.46279   1.000
    Zn11    Zn   0.03086   0.07060   0.03807   1.000
    Zn12    Zn   0.84390   0.13595   0.03381   1.000
    Zn13    Zn   0.97214   0.42986   0.54021   1.000
    Zn14    Zn   0.15663   0.36351   0.53442   1.000
    Zn15    Zn   0.52788   0.42992   0.04018   1.000
loop_
    _geom_bond_atom_site_label_1
    _geom_bond_atom_site_label_2
    _geom_bond_distance
    _geom_bond_site_symmetry_2
    _ccdc_geom_bond_type
    Zn14   Zn13      2.88771  1_455   S
