# CIF file generated by openbabel 2.4.90, see http://openbabel.sf.net
data_I
_chemical_name_common ''
_cell_length_a 14.565
_cell_length_b 15.855
_cell_length_c 18.856
_cell_angle_alpha 90.398
_cell_angle_beta 90.114
_cell_angle_gamma 90.004
_space_group_name_H-M_alt 'P 1'
_space_group_name_Hall 'P 1'
loop_
    _symmetry_equiv_pos_as_xyz
    x,y,z
loop_
    _atom_site_label
    _atom_site_type_symbol
    _atom_site_fract_x
    _atom_site_fract_y
    _atom_site_fract_z
    _atom_site_occupancy
    Zr0     Zr   0.52788   0.42992   0.04018   1.000
    Zr1     Zr   0.34347   0.36341   0.03424   1.000
    Zr2     Zr   0.46927   0.07102   0.53826   1.000
    Zr3     Zr   0.65612   0.13676   0.53394   1.000
    Zr4     Zr   0.46858   0.56997   0.95675   1.000
    Zr5     Zr   0.65569   0.63422   0.96285   1.000
    Zr6     Zr   0.53076   0.92867   0.45859   1.000
    Zr7     Zr   0.34391   0.86311   0.46301   1.000
    Zr8     Zr   0.96901   0.92649   0.95922   1.000
    Zr9     Zr   0.15606   0.86245   0.96346   1.000
    Zr10    Zr   0.03139   0.56991   0.45696   1.000
    Zr11    Zr   0.84423   0.63420   0.46279   1.000
    Zr12    Zr   0.03086   0.07060   0.03807   1.000
    Zr13    Zr   0.84390   0.13595   0.03381   1.000
    Zr14    Zr   0.97214   0.42986   0.54021   1.000
    Zr15    Zr   0.15663   0.36351   0.53442   1.000
    O16     O    0.06438   0.39669   0.53731   1.000
    N17     N    0.99162   0.71515   0.19424   1.000
    O18     O    0.92862   0.68097   0.30390   1.000
    O19     O    0.06120   0.76952   0.09643   1.000
    O20     O    0.01140   0.65099   0.30119   1.000
    O21     O    0.97788   0.79803   0.09461   1.000
    N22     N    0.50800   0.71590   0.69404   1.000
    O23     O    0.48837   0.65140   0.80094   1.000
    O24     O    0.43852   0.77012   0.59604   1.000
    O25     O    0.57113   0.68139   0.80382   1.000
    O26     O    0.52162   0.79940   0.59436   1.000
    N27     N    0.99995   0.99819   0.49837   1.000
    O28     O    0.86024   0.06133   0.51466   1.000
    O29     O    0.13971   0.93675   0.48216   1.000
    N30     N    0.49144   0.28313   0.30284   1.000
    O31     O    0.47811   0.20000   0.40256   1.000
    O32     O    0.56121   0.22933   0.40088   1.000
    O33     O    0.50987   0.34808   0.19597   1.000
    O34     O    0.42821   0.31668   0.19306   1.000
    N35     N    0.99169   0.21688   0.30321   1.000
    O36     O    0.92863   0.18323   0.19299   1.000
    O37     O    0.97892   0.30008   0.40384   1.000
    O38     O    0.06135   0.27049   0.40157   1.000
    O39     O    0.01136   0.15295   0.19505   1.000
    N40     N    0.12457   0.49460   0.52114   1.000
    O41     O    0.09434   0.50999   0.50202   1.000
    O42     O    0.07953   0.47498   0.52283   1.000
    O43     O    0.12565   0.45839   0.52138   1.000
    N44     N    0.50031   0.49974   0.49845   1.000
    O45     O    0.64003   0.56130   0.48219   1.000
    O46     O    0.36063   0.43775   0.51484   1.000
    N47     N    0.99950   0.49928   0.00044   1.000
    O48     O    0.13929   0.43737   0.01578   1.000
    O49     O    0.85983   0.56101   0.98320   1.000
    N50     N    0.00932   0.78217   0.69367   1.000
    O51     O    0.07155   0.81505   0.80428   1.000
    O52     O    0.93996   0.72820   0.59523   1.000
    O53     O    0.98916   0.84572   0.80190   1.000
    O54     O    0.02318   0.69936   0.59311   1.000
    N55     N    0.50014   0.99717   0.00035   1.000
    O56     O    0.63979   0.06050   0.01559   1.000
    O57     O    0.36038   0.93561   0.98329   1.000
    N58     N    0.00900   0.28215   0.80262   1.000
    O59     O    0.99041   0.34755   0.69588   1.000
    O60     O    0.07208   0.31620   0.69302   1.000
    O61     O    0.02249   0.19929   0.90243   1.000
    O62     O    0.93914   0.22798   0.90049   1.000
    N63     N    0.12325   0.99287   0.97562   1.000
    O64     O    0.09325   0.00894   0.99434   1.000
    O65     O    0.07778   0.97291   0.97462   1.000
    O66     O    0.12455   0.95690   0.97568   1.000
    N67     N    0.50846   0.21684   0.80337   1.000
    O68     O    0.52116   0.30008   0.90394   1.000
    O69     O    0.48879   0.15306   0.69520   1.000
    O70     O    0.43875   0.27044   0.90156   1.000
    O71     O    0.57151   0.18341   0.69320   1.000
    N72     N    0.49053   0.78275   0.19337   1.000
    O73     O    0.42798   0.81634   0.30363   1.000
    O74     O    0.55998   0.72847   0.09514   1.000
    O75     O    0.51070   0.84661   0.30157   1.000
    O76     O    0.47676   0.69965   0.09288   1.000
    N77     N    0.62355   0.00571   0.52147   1.000
    O78     O    0.59342   0.98982   0.50267   1.000
    O79     O    0.57805   0.02541   0.52258   1.000
    O80     O    0.62476   0.04185   0.52150   1.000
    N81     N    0.87706   0.00496   0.02155   1.000
    O82     O    0.90696   0.98868   0.00285   1.000
    O83     O    0.92242   0.02470   0.02257   1.000
    O84     O    0.87568   0.04104   0.02150   1.000
    N85     N    0.87848   0.50433   0.47584   1.000
    O86     O    0.90874   0.48923   0.49500   1.000
    O87     O    0.87677   0.54031   0.47565   1.000
    O88     O    0.92356   0.52424   0.47419   1.000
    N89     N    0.37638   0.99409   0.47540   1.000
    O90     O    0.40654   0.00995   0.49420   1.000
    O91     O    0.42191   0.97436   0.47428   1.000
    O92     O    0.37520   0.95797   0.47538   1.000
    N93     N    0.37552   0.49455   0.02088   1.000
    O94     O    0.40570   0.50998   0.00176   1.000
    O95     O    0.42053   0.47496   0.02262   1.000
    O96     O    0.37442   0.45834   0.02114   1.000
    N97     N    0.62135   0.50434   0.97584   1.000
    O98     O    0.59115   0.48926   0.99499   1.000
    O99     O    0.57633   0.52427   0.97414   1.000
    O100    O    0.62310   0.54033   0.97566   1.000
loop_
    _geom_bond_atom_site_label_1
    _geom_bond_atom_site_label_2
    _geom_bond_distance
    _geom_bond_site_symmetry_2
    _ccdc_geom_bond_type
    Zr15   O16       1.44385      .   S
    Zr14   O16       1.44385  1_655   S
    N17    O18       2.33125      .   S
    Zr11   O18       3.32903      .   S
    N17    O19       2.28048  1_655   S
    Zr9    O19       3.22983  1_556   S
    N17    O20       2.28283  1_655   S
    Zr10   O20       3.22703      .   S
    N17    O21       2.30839      .   S
    Zr8    O21       3.27924  1_556   S
    N22    O23       2.28509      .   S
    Zr4    O23       3.23067      .   S
    N22    O24       2.27876      .   S
    Zr7    O24       3.22531      .   S
    N22    O25       2.33189      .   S
    Zr5    O25       3.32943      .   S
    N22    O26       2.31532      .   S
    Zr6    O26       3.29348      .   S
    N27    O28       2.28811  1_565   S
    Zr3    O28       3.22486      .   S
    N27    O29       2.27704  1_655   S
    Zr7    O29       3.21535      .   S
    N30    O31       2.31226      .   S
    Zr2    O31       3.28923      .   S
    N30    O32       2.27860      .   S
    Zr3    O32       3.22453      .   S
    N30    O33       2.28566      .   S
    Zr0    O33       3.23085      .   S
    N30    O34       2.32896      .   S
    Zr1    O34       3.32512      .   S
    N35    O36       2.32905      .   S
    Zr13   O36       3.32374      .   S
    N35    O37       2.31118      .   S
    Zr14   O37       3.28385      .   S
    N35    O38       2.27209  1_655   S
    Zr15   O38       3.21098      .   S
    N35    O39       2.28962  1_655   S
    Zr12   O39       3.23995      .   S
    N40    O41       0.61970      .   S
    Zr10   O41       1.57264      .   S
    N40    O42       0.72694      .   S
    Zr14   O42       1.75229  1_655   S
    N40    O43       0.57445      .   S
    Zr15   O43       1.59116      .   S
    N44    O45       2.27904      .   S
    Zr11   O45       3.21334      .   S
    N44    O46       2.28183      .   S
    Zr15   O46       3.21881      .   S
    N47    O48       2.27914  1_655   S
    Zr1    O48       3.21584      .   S
    N47    O49       2.28123  1_554   S
    Zr5    O49       3.21526      .   S
    N50    O51       2.32821      .   S
    Zr9    O51       3.32297      .   S
    N50    O52       2.27342  1_455   S
    Zr11   O52       3.21492      .   S
    N50    O53       2.28912  1_455   S
    Zr8    O53       3.23685      .   S
    N50    O54       2.30806      .   S
    Zr10   O54       3.27793      .   S
    N55    O56       2.28508  1_565   S
    Zr13   O56       3.22131      .   S
    N55    O57       2.27873  1_554   S
    Zr9    O57       3.21410      .   S
    N58    O59       2.28610  1_455   S
    Zr14   O59       3.23110      .   S
    N58    O60       2.33010      .   S
    Zr15   O60       3.32685      .   S
    N58    O61       2.31078      .   S
    Zr12   O61       3.28493  1_554   S
    N58    O62       2.28212  1_455   S
    Zr13   O62       3.23073  1_554   S
    N63    O64       0.61623  1_565   S
    Zr12   O64       1.56633  1_554   S
    N63    O65       0.73403      .   S
    Zr8    O65       1.76944  1_655   S
    N63    O66       0.57058      .   S
    Zr9    O66       1.58179      .   S
    N67    O68       2.31001      .   S
    Zr0    O68       3.28213  1_554   S
    N67    O69       2.28768      .   S
    Zr2    O69       3.23626      .   S
    N67    O70       2.27308      .   S
    Zr1    O70       3.21267  1_554   S
    N67    O71       2.33057      .   S
    Zr3    O71       3.32694      .   S
    N72    O73       2.32996      .   S
    Zr7    O73       3.32632      .   S
    N72    O74       2.27596      .   S
    Zr5    O74       3.21877  1_556   S
    N72    O75       2.28978      .   S
    Zr6    O75       3.23837      .   S
    N72    O76       2.30877      .   S
    Zr4    O76       3.27959  1_556   S
    N77    O78       0.61641  1_545   S
    Zr6    O78       1.56510      .   S
    N77    O79       0.73305      .   S
    Zr2    O79       1.76621      .   S
    N77    O80       0.57327      .   S
    Zr3    O80       1.58838      .   S
    N81    O82       0.61627  1_545   S
    Zr8    O82       1.56767  1_556   S
    N81    O83       0.73125      .   S
    Zr12   O83       1.76199  1_455   S
    N81    O84       0.57255      .   S
    Zr13   O84       1.59004      .   S
    N85    O86       0.61873      .   S
    Zr14   O86       1.57268      .   S
    N85    O87       0.57102      .   S
    Zr11   O87       1.58233      .   S
    N85    O88       0.72931      .   S
    Zr10   O88       1.76124  1_455   S
    N89    O90       0.61638  1_565   S
    Zr2    O90       1.56468      .   S
    N89    O91       0.73365      .   S
    Zr6    O91       1.76771      .   S
    N89    O92       0.57297      .   S
    Zr7    O92       1.58710      .   S
    N93    O94       0.62035      .   S
    Zr4    O94       1.57421  1_556   S
    N93    O95       0.72620      .   S
    Zr0    O95       1.75101      .   S
    N93    O96       0.57448      .   S
    Zr1    O96       1.59222      .   S
    N97    O98       0.61880      .   S
    Zr0    O98       1.57293  1_554   S
    N97    O99       0.72869      .   S
    Zr4    O99       1.75971      .   S
    N97    O100      0.57125      .   S
    Zr5    O100      1.58275      .   S
