# CIF file generated by openbabel 2.4.90, see http://openbabel.sf.net
data_I
_chemical_name_common ''
_cell_length_a 14.565
_cell_length_b 15.855
_cell_length_c 18.856
_cell_angle_alpha 90.398
_cell_angle_beta 90.114
_cell_angle_gamma 90.004
_space_group_name_H-M_alt 'P 1'
_space_group_name_Hall 'P 1'
loop_
    _symmetry_equiv_pos_as_xyz
    x,y,z
loop_
    _atom_site_label
    _atom_site_type_symbol
    _atom_site_fract_x
    _atom_site_fract_y
    _atom_site_fract_z
    _atom_site_occupancy
    Zr0     Zr   0.52788   0.42992   0.04018   1.000
    Zr1     Zr   0.34347   0.36341   0.03424   1.000
    Zr2     Zr   0.46927   0.07102   0.53826   1.000
    Zr3     Zr   0.65612   0.13676   0.53394   1.000
    Zr4     Zr   0.46859   0.56997   0.95675   1.000
    Zr5     Zr   0.65569   0.63422   0.96285   1.000
    Zr6     Zr   0.53076   0.92867   0.45859   1.000
    Zr7     Zr   0.34391   0.86311   0.46301   1.000
    Zr8     Zr   0.96901   0.92649   0.95922   1.000
    Zr9     Zr   0.15606   0.86245   0.96346   1.000
    Zr10    Zr   0.03139   0.56991   0.45696   1.000
    Zr11    Zr   0.84423   0.63420   0.46280   1.000
    Zr12    Zr   0.03086   0.07060   0.03807   1.000
    Zr13    Zr   0.84390   0.13595   0.03381   1.000
    Zr14    Zr   0.97214   0.42986   0.54021   1.000
    Zr15    Zr   0.15663   0.36351   0.53442   1.000
    O16     O    0.06439   0.39668   0.53731   1.000
    N17     N    0.00932   0.78217   0.69367   1.000
    O18     O    0.98916   0.84572   0.80190   1.000
    O19     O    0.07155   0.81505   0.80428   1.000
    O20     O    0.02318   0.69936   0.59311   1.000
    O21     O    0.93995   0.72820   0.59524   1.000
    N22     N    0.99950   0.49928   0.00044   1.000
    O23     O    0.85983   0.56101   0.98320   1.000
    O24     O    0.13929   0.43737   0.01578   1.000
    N25     N    0.99162   0.71514   0.19424   1.000
    O26     O    0.97788   0.79803   0.09461   1.000
    O27     O    0.92862   0.68097   0.30390   1.000
    O28     O    0.01140   0.65099   0.30119   1.000
    O29     O    0.06120   0.76952   0.09643   1.000
    N30     N    0.50014   0.99717   0.00035   1.000
    O31     O    0.36038   0.93561   0.98329   1.000
    O32     O    0.63979   0.06050   0.01559   1.000
    N33     N    0.99994   0.99819   0.49837   1.000
    O34     O    0.13971   0.93675   0.48216   1.000
    O35     O    0.86024   0.06133   0.51466   1.000
    N36     N    0.50846   0.21684   0.80337   1.000
    O37     O    0.52116   0.30008   0.90394   1.000
    O38     O    0.43875   0.27044   0.90156   1.000
    O39     O    0.57151   0.18341   0.69320   1.000
    O40     O    0.48879   0.15306   0.69520   1.000
    N41     N    0.37552   0.49455   0.02088   1.000
    O42     O    0.40570   0.50997   0.00176   1.000
    O43     O    0.42053   0.47496   0.02262   1.000
    O44     O    0.37442   0.45833   0.02114   1.000
    N45     N    0.99169   0.21688   0.30321   1.000
    O46     O    0.92863   0.18323   0.19299   1.000
    O47     O    0.01136   0.15295   0.19505   1.000
    O48     O    0.97892   0.30008   0.40384   1.000
    O49     O    0.06136   0.27049   0.40157   1.000
    N50     N    0.49053   0.78275   0.19336   1.000
    O51     O    0.42798   0.81634   0.30363   1.000
    O52     O    0.55998   0.72847   0.09514   1.000
    O53     O    0.51070   0.84661   0.30157   1.000
    O54     O    0.47676   0.69965   0.09288   1.000
    N55     N    0.87706   0.00496   0.02154   1.000
    O56     O    0.90696   0.98868   0.00285   1.000
    O57     O    0.92242   0.02470   0.02256   1.000
    O58     O    0.87568   0.04104   0.02150   1.000
    N59     N    0.49144   0.28313   0.30284   1.000
    O60     O    0.56121   0.22933   0.40087   1.000
    O61     O    0.47811   0.20000   0.40256   1.000
    O62     O    0.50987   0.34808   0.19597   1.000
    O63     O    0.42821   0.31668   0.19306   1.000
    N64     N    0.50031   0.49974   0.49845   1.000
    O65     O    0.64003   0.56130   0.48219   1.000
    O66     O    0.36064   0.43775   0.51484   1.000
    N67     N    0.87847   0.50433   0.47584   1.000
    O68     O    0.90874   0.48922   0.49500   1.000
    O69     O    0.92355   0.52424   0.47419   1.000
    O70     O    0.87676   0.54031   0.47565   1.000
    N71     N    0.37637   0.99409   0.47540   1.000
    O72     O    0.42191   0.97436   0.47428   1.000
    O73     O    0.37520   0.95797   0.47538   1.000
    O74     O    0.40654   0.00995   0.49420   1.000
    N75     N    0.00900   0.28215   0.80262   1.000
    O76     O    0.07208   0.31620   0.69302   1.000
    O77     O    0.99041   0.34755   0.69588   1.000
    O78     O    0.93914   0.22798   0.90049   1.000
    O79     O    0.02249   0.19929   0.90243   1.000
    N80     N    0.50800   0.71589   0.69404   1.000
    O81     O    0.48837   0.65140   0.80094   1.000
    O82     O    0.57113   0.68138   0.80382   1.000
    O83     O    0.43852   0.77011   0.59604   1.000
    O84     O    0.52162   0.79940   0.59436   1.000
    N85     N    0.12457   0.49460   0.52114   1.000
    O86     O    0.09434   0.50999   0.50202   1.000
    O87     O    0.07953   0.47498   0.52283   1.000
    O88     O    0.12565   0.45839   0.52138   1.000
    N89     N    0.62135   0.50434   0.97584   1.000
    O90     O    0.59115   0.48925   0.99499   1.000
    O91     O    0.57633   0.52427   0.97414   1.000
    O92     O    0.62310   0.54033   0.97566   1.000
    N93     N    0.12325   0.99287   0.97562   1.000
    O94     O    0.09325   0.00894   0.99433   1.000
    O95     O    0.07778   0.97291   0.97462   1.000
    O96     O    0.12455   0.95690   0.97568   1.000
    N97     N    0.62355   0.00570   0.52147   1.000
    O98     O    0.59342   0.98982   0.50267   1.000
    O99     O    0.57805   0.02541   0.52258   1.000
    O100    O    0.62476   0.04184   0.52150   1.000
loop_
    _geom_bond_atom_site_label_1
    _geom_bond_atom_site_label_2
    _geom_bond_distance
    _geom_bond_site_symmetry_2
    _ccdc_geom_bond_type
    Zr15   O16       1.44387      .   S
    Zr14   O16       1.44387  1_655   S
    N17    O18       2.28909  1_455   S
    Zr8    O18       3.23680      .   S
    N17    O19       2.32823      .   S
    Zr9    O19       3.32301      .   S
    N17    O20       2.30808      .   S
    Zr10   O20       3.27797      .   S
    N17    O21       2.27340  1_455   S
    Zr11   O21       3.21487      .   S
    N22    O23       2.28125  1_554   S
    Zr5    O23       3.21522      .   S
    N22    O24       2.27915  1_655   S
    Zr1    O24       3.21585      .   S
    N25    O26       2.30842      .   S
    Zr8    O26       3.27923  1_556   S
    N25    O27       2.33125      .   S
    Zr11   O27       3.32912      .   S
    N25    O28       2.28281  1_655   S
    Zr10   O28       3.22697      .   S
    N25    O29       2.28049  1_655   S
    Zr9    O29       3.22979  1_556   S
    N30    O31       2.27873  1_554   S
    Zr9    O31       3.21410      .   S
    N30    O32       2.28505  1_565   S
    Zr13   O32       3.22126      .   S
    N33    O34       2.27704  1_655   S
    Zr7    O34       3.21532      .   S
    N33    O35       2.28813  1_565   S
    Zr3    O35       3.22488      .   S
    N36    O37       2.31003      .   S
    Zr0    O37       3.28214  1_554   S
    N36    O38       2.27306      .   S
    Zr1    O38       3.21264  1_554   S
    N36    O39       2.33054      .   S
    Zr3    O39       3.32688      .   S
    N36    O40       2.28768      .   S
    Zr2    O40       3.23623      .   S
    N41    O42       0.62036      .   S
    Zr4    O42       1.57429  1_556   S
    N41    O43       0.72618      .   S
    Zr0    O43       1.75094      .   S
    N41    O44       0.57446      .   S
    Zr1    O44       1.59216      .   S
    N45    O46       2.32907      .   S
    Zr13   O46       3.32375      .   S
    N45    O47       2.28962  1_655   S
    Zr12   O47       3.23989      .   S
    N45    O48       2.31119      .   S
    Zr14   O48       3.28385      .   S
    N45    O49       2.27212  1_655   S
    Zr15   O49       3.21099      .   S
    N50    O51       2.32995      .   S
    Zr7    O51       3.32637      .   S
    N50    O52       2.27597      .   S
    Zr5    O52       3.21879  1_556   S
    N50    O53       2.28979      .   S
    Zr6    O53       3.23841      .   S
    N50    O54       2.30874      .   S
    Zr4    O54       3.27956  1_556   S
    N55    O56       0.61630  1_545   S
    Zr8    O56       1.56771  1_556   S
    N55    O57       0.73126      .   S
    Zr12   O57       1.76199  1_455   S
    N55    O58       0.57253      .   S
    Zr13   O58       1.59000      .   S
    N59    O60       2.27862      .   S
    Zr3    O60       3.22459      .   S
    N59    O61       2.31228      .   S
    Zr2    O61       3.28931      .   S
    N59    O62       2.28563      .   S
    Zr0    O62       3.23075      .   S
    N59    O63       2.32897      .   S
    Zr1    O63       3.32512      .   S
    N64    O65       2.27903      .   S
    Zr11   O65       3.21329      .   S
    N64    O66       2.28183      .   S
    Zr15   O66       3.21879      .   S
    N67    O68       0.61874      .   S
    Zr14   O68       1.57268      .   S
    N67    O69       0.72931      .   S
    Zr10   O69       1.76122  1_455   S
    N67    O70       0.57104      .   S
    Zr11   O70       1.58238      .   S
    N71    O72       0.73364      .   S
    Zr6    O72       1.76771      .   S
    N71    O73       0.57297      .   S
    Zr7    O73       1.58711      .   S
    N71    O74       0.61637  1_565   S
    Zr2    O74       1.56470      .   S
    N75    O76       2.33011      .   S
    Zr15   O76       3.32683      .   S
    N75    O77       2.28609  1_455   S
    Zr14   O77       3.23106      .   S
    N75    O78       2.28215  1_455   S
    Zr13   O78       3.23076  1_554   S
    N75    O79       2.31079      .   S
    Zr12   O79       3.28494  1_554   S
    N80    O81       2.28507      .   S
    Zr4    O81       3.23067      .   S
    N80    O82       2.33188      .   S
    Zr5    O82       3.32943      .   S
    N80    O83       2.27876      .   S
    Zr7    O83       3.22532      .   S
    N80    O84       2.31535      .   S
    Zr6    O84       3.29347      .   S
    N85    O86       0.61972      .   S
    Zr10   O86       1.57271      .   S
    N85    O87       0.72697      .   S
    Zr14   O87       1.75235  1_655   S
    N85    O88       0.57445      .   S
    Zr15   O88       1.59115      .   S
    N89    O90       0.61883      .   S
    Zr0    O90       1.57299  1_554   S
    N89    O91       0.72867      .   S
    Zr4    O91       1.75964      .   S
    N89    O92       0.57122      .   S
    Zr5    O92       1.58272      .   S
    N93    O94       0.61624  1_565   S
    Zr12   O94       1.56636  1_554   S
    N93    O95       0.73405      .   S
    Zr8    O95       1.76950  1_655   S
    N93    O96       0.57059      .   S
    Zr9    O96       1.58181      .   S
    N97    O98       0.61640  1_545   S
    Zr6    O98       1.56506      .   S
    N97    O99       0.73305      .   S
    Zr2    O99       1.76621      .   S
    N97    O100      0.57326      .   S
    Zr3    O100      1.58834      .   S
