# CIF file generated by openbabel 2.4.90, see http://openbabel.sf.net
data_I
_chemical_name_common ''
_cell_length_a 14.172
_cell_length_b 15
_cell_length_c 15.368
_cell_angle_alpha 90.097
_cell_angle_beta 90.015
_cell_angle_gamma 90.035
_space_group_name_H-M_alt 'P 1'
_space_group_name_Hall 'P 1'
loop_
    _symmetry_equiv_pos_as_xyz
    x,y,z
loop_
    _atom_site_label
    _atom_site_type_symbol
    _atom_site_fract_x
    _atom_site_fract_y
    _atom_site_fract_z
    _atom_site_occupancy
    H0      H    0.28427   0.26798   0.73589   1.000
    H1      H    0.44402   0.50392   0.59203   1.000
    H2      H    0.21680   0.76854   0.26541   1.000
    H3      H    0.05606   0.00364   0.40782   1.000
    H4      H    0.71625   0.23243   0.23549   1.000
    H5      H    0.55633   0.99623   0.09191   1.000
    H6      H    0.78489   0.73214   0.76459   1.000
    H7      H    0.94454   0.49636   0.90744   1.000
    H8      H    0.71600   0.73189   0.26387   1.000
    H9      H    0.55617   0.49619   0.40791   1.000
    H10     H    0.78364   0.23137   0.73414   1.000
    H11     H    0.94504   0.99623   0.59117   1.000
    H12     H    0.28387   0.76732   0.76457   1.000
    H13     H    0.44397   0.00379   0.90787   1.000
    H14     H    0.21629   0.26827   0.23357   1.000
    H15     H    0.05546   0.50375   0.09132   1.000
    C16     C    0.50270   0.21989   0.77382   1.000
    C17     C    0.50440   0.24608   0.68626   1.000
    C18     C    0.35981   0.25625   0.73576   1.000
    C19     C    0.24270   0.45894   0.50440   1.000
    C20     C    0.23867   0.55172   0.51547   1.000
    C21     C    0.37391   0.50421   0.56354   1.000
    C22     C    0.00000   0.72006   0.22653   1.000
    C23     C    0.00000   0.74623   0.31423   1.000
    C24     C    0.14128   0.75669   0.26522   1.000
    C25     C    0.25753   0.95899   0.49502   1.000
    C26     C    0.26185   0.05169   0.48356   1.000
    C27     C    0.12626   0.00400   0.43613   1.000
    C28     C    0.49760   0.27911   0.27404   1.000
    C29     C    0.49589   0.25326   0.18637   1.000
    C30     C    0.64064   0.24374   0.23556   1.000
    C31     C    0.75760   0.04082   0.00000   1.000
    C32     C    0.76172   0.94810   0.01552   1.000
    C33     C    0.62644   0.99582   0.06344   1.000
    C34     C    0.00326   0.77983   0.72589   1.000
    C35     C    0.00533   0.75332   0.81330   1.000
    C36     C    0.86046   0.74371   0.76440   1.000
    C37     C    0.74345   0.54127   0.99533   1.000
    C38     C    0.73905   0.44853   0.98375   1.000
    C39     C    0.87447   0.49608   0.93598   1.000
    C40     C    0.49756   0.77995   0.22594   1.000
    C41     C    0.49587   0.75370   0.31345   1.000
    C42     C    0.64046   0.74360   0.26402   1.000
    C43     C    0.75746   0.54112   0.49564   1.000
    C44     C    0.76147   0.44833   0.48455   1.000
    C45     C    0.62627   0.49588   0.43643   1.000
    C46     C    0.00171   0.27998   0.77332   1.000
    C47     C    0.00393   0.25377   0.68568   1.000
    C48     C    0.85915   0.24327   0.73445   1.000
    C49     C    0.74371   0.04106   0.50373   1.000
    C50     C    0.73924   0.94838   0.51528   1.000
    C51     C    0.87486   0.99596   0.56282   1.000
    C52     C    0.50251   0.72092   0.72579   1.000
    C53     C    0.50428   0.74675   0.81346   1.000
    C54     C    0.35948   0.75610   0.76440   1.000
    C55     C    0.24271   0.95912   0.99550   1.000
    C56     C    0.23856   0.05183   0.98428   1.000
    C57     C    0.37386   0.00418   0.93633   1.000
    C58     C    0.00000   0.22071   0.27334   1.000
    C59     C    0.00000   0.24694   0.18587   1.000
    C60     C    0.14071   0.25671   0.23412   1.000
    C61     C    0.25698   0.45885   0.00000   1.000
    C62     C    0.26142   0.55155   0.01607   1.000
    C63     C    0.12569   0.50404   0.06311   1.000
    N64     N    0.41055   0.22675   0.80381   1.000
    N65     N    0.41376   0.26906   0.66443   1.000
    N66     N    0.32936   0.43014   0.53534   1.000
    N67     N    0.32289   0.57907   0.55229   1.000
    N68     N    0.09085   0.72710   0.19684   1.000
    N69     N    0.08707   0.76938   0.33643   1.000
    N70     N    0.17068   0.93014   0.46452   1.000
    N71     N    0.17753   0.07887   0.44697   1.000
    N72     N    0.58984   0.27276   0.30387   1.000
    N73     N    0.58661   0.23089   0.16420   1.000
    N74     N    0.67092   0.06975   0.03510   1.000
    N75     N    0.67750   0.92092   0.05236   1.000
    N76     N    0.91091   0.77341   0.69620   1.000
    N77     N    0.91476   0.73054   0.83548   1.000
    N78     N    0.83022   0.57007   0.96462   1.000
    N79     N    0.82317   0.42131   0.94682   1.000
    N80     N    0.58972   0.77314   0.19598   1.000
    N81     N    0.58648   0.73074   0.33534   1.000
    N82     N    0.67082   0.56995   0.46466   1.000
    N83     N    0.67725   0.42100   0.44769   1.000
    N84     N    0.90940   0.27293   0.80290   1.000
    N85     N    0.91352   0.23057   0.66331   1.000
    N86     N    0.83055   0.06986   0.53428   1.000
    N87     N    0.82344   0.92119   0.55207   1.000
    N88     N    0.41024   0.72718   0.69603   1.000
    N89     N    0.41357   0.76900   0.83570   1.000
    N90     N    0.32938   0.93023   0.96465   1.000
    N91     N    0.32277   0.07905   0.94745   1.000
    N92     N    0.09065   0.22719   0.30265   1.000
    N93     N    0.08604   0.26972   0.16320   1.000
    N94     N    0.17001   0.43008   0.03452   1.000
    N95     N    0.17711   0.57880   0.05265   1.000
loop_
    _geom_bond_atom_site_label_1
    _geom_bond_atom_site_label_2
    _geom_bond_distance
    _geom_bond_site_symmetry_2
    _ccdc_geom_bond_type
    C31    C32       1.41281  1_545   S
    C31    N74       1.41006      .   S
    C61    C62       1.41322      .   S
    C61    N94       1.40968      .   S
    C32    N75       1.38271      .   S
    C62    N95       1.38228      .   S
    N94    C63       1.34822      .   S
    N74    C33       1.34837  1_545   S
    N75    C33       1.34727      .   S
    N95    C63       1.34694      .   S
    C63    H15       1.08569      .   S
    C33    H5        1.08575      .   S
    N93    C59       1.31337      .   S
    N93    C60       1.35157      .   S
    N73    C29       1.37185      .   S
    N73    C30       1.35090      .   S
    C59    C58       1.40130      .   S
    C29    C28       1.40162      .   S
    N80    C40       1.38873      .   S
    N80    C42       1.34475      .   S
    N68    C22       1.37012      .   S
    N68    C24       1.34523      .   S
    C40    C41       1.40222      .   S
    C22    C23       1.40313      .   S
    H14    C60       1.08491      .   S
    C60    N92       1.34547      .   S
    H4     C30       1.08492      .   S
    C30    N72       1.34499      .   S
    H8     C42       1.08494      .   S
    C42    N81       1.35077      .   S
    C24    H2        1.08479      .   S
    C24    N69       1.35054      .   S
    C58    N92       1.36457      .   S
    C28    N72       1.38846      .   S
    C41    N81       1.37169      .   S
    C23    N69       1.32613      .   S
    H3     C27       1.08571      .   S
    H9     C45       1.08576      .   S
    C27    N71       1.34724      .   S
    C27    N70       1.34779  1_545   S
    C45    N83       1.34724      .   S
    C45    N82       1.34851      .   S
    N71    C26       1.38256      .   S
    N83    C44       1.38257      .   S
    N70    C25       1.38589      .   S
    N82    C43       1.38647      .   S
    C26    C25       1.40317  1_545   S
    C44    C43       1.40315      .   S
    C49    C50       1.40320  1_545   S
    C49    N86       1.38568      .   S
    C19    C20       1.40298      .   S
    C19    N66       1.38643      .   S
    C50    N87       1.38239      .   S
    C20    N67       1.38259      .   S
    N86    C51       1.34818  1_545   S
    N66    C21       1.34845      .   S
    N87    C51       1.34711      .   S
    N67    C21       1.34722      .   S
    C51    H11       1.08568      .   S
    C21    H1        1.08574      .   S
    N85    C47       1.37101  1_655   S
    N85    C48       1.35095      .   S
    N65    C17       1.37185      .   S
    N65    C18       1.35070      .   S
    C47    C46       1.40286      .   S
    C17    C16       1.40261      .   S
    N88    C52       1.38852      .   S
    N88    C54       1.34488      .   S
    N76    C34       1.38907  1_655   S
    N76    C36       1.34533      .   S
    C52    C53       1.40161      .   S
    C34    C35       1.40184      .   S
    H10    C48       1.08488      .   S
    C48    N84       1.34507      .   S
    C18    H0        1.08497      .   S
    C18    N64       1.34464      .   S
    C54    H12       1.08475      .   S
    C54    N89       1.35077      .   S
    C36    H6        1.08493      .   S
    C36    N77       1.35084      .   S
    C46    N84       1.38908  1_455   S
    C16    N64       1.38882      .   S
    C35    N77       1.37147  1_455   S
    C53    N89       1.37152      .   S
    H7     C39       1.08568      .   S
    H13    C57       1.08574      .   S
    C39    N79       1.34678      .   S
    C39    N78       1.34848      .   S
    C57    N91       1.34726      .   S
    C57    N90       1.34834  1_545   S
    N79    C38       1.38209      .   S
    N91    C56       1.38271      .   S
    N78    C37       1.38629      .   S
    N90    C55       1.38625      .   S
    C38    C37       1.40349      .   S
    C56    C55       1.40278  1_545   S
