# CIF file generated by openbabel 2.4.90, see http://openbabel.sf.net
data_I
_chemical_name_common ''
_cell_length_a 14.172
_cell_length_b 15
_cell_length_c 15.368
_cell_angle_alpha 90.097
_cell_angle_beta 90.015
_cell_angle_gamma 90.035
_space_group_name_H-M_alt 'P 1'
_space_group_name_Hall 'P 1'
loop_
    _symmetry_equiv_pos_as_xyz
    x,y,z
loop_
    _atom_site_label
    _atom_site_type_symbol
    _atom_site_fract_x
    _atom_site_fract_y
    _atom_site_fract_z
    _atom_site_occupancy
    Zn0     Zn   0.37419   0.70706   0.56646   1.000
    Zn1     Zn   0.11125   0.80460   0.46219   1.000
    Zn2     Zn   0.12725   0.20691   0.43293   1.000
    Zn3     Zn   0.61280   0.19560   0.03946   1.000
    Zn4     Zn   0.62590   0.79299   0.06654   1.000
    Zn5     Zn   0.88922   0.69564   0.96035   1.000
    Zn6     Zn   0.87270   0.29296   0.93301   1.000
    Zn7     Zn   0.61260   0.69558   0.46007   1.000
    Zn8     Zn   0.62586   0.29297   0.43343   1.000
    Zn9     Zn   0.88924   0.19556   0.53758   1.000
    Zn10    Zn   0.87303   0.79311   0.56671   1.000
    Zn11    Zn   0.38728   0.80439   0.96033   1.000
    Zn12    Zn   0.37418   0.20703   0.93336   1.000
    Zn13    Zn   0.11076   0.30446   0.03775   1.000
    Zn14    Zn   0.12729   0.70703   0.06680   1.000
    Zn15    Zn   0.00006   0.49997   0.49999   1.000
    Zn16    Zn   0.50099   0.99987   0.49982   1.000
    Zn17    Zn   0.00007   0.99993   0.99999   1.000
    Zn18    Zn   0.50052   0.49995   0.99998   1.000
    H19     H    0.28427   0.26798   0.73589   1.000
    H20     H    0.44402   0.50392   0.59203   1.000
    H21     H    0.70493   0.18302   0.86599   1.000
    H22     H    0.21680   0.76854   0.26541   1.000
    H23     H    0.05606   0.00364   0.40782   1.000
    H24     H    0.79659   0.68355   0.13355   1.000
    H25     H    0.71625   0.23243   0.23549   1.000
    H26     H    0.55633   0.99623   0.09191   1.000
    H27     H    0.29526   0.31440   0.36622   1.000
    H28     H    0.78489   0.73214   0.76459   1.000
    H29     H    0.94454   0.49636   0.90744   1.000
    H30     H    0.20548   0.81468   0.63353   1.000
    H31     H    0.71600   0.73189   0.26387   1.000
    Zn32    Zn   0.38742   0.30448   0.53981   1.000
    H33     H    0.55617   0.49619   0.40791   1.000
    H34     H    0.29533   0.81695   0.13382   1.000
    H35     H    0.78364   0.23137   0.73414   1.000
    H36     H    0.94504   0.99623   0.59117   1.000
    H37     H    0.20376   0.31658   0.86634   1.000
    H38     H    0.28387   0.76732   0.76457   1.000
    H39     H    0.44397   0.00379   0.90787   1.000
    H40     H    0.70482   0.68560   0.63358   1.000
    H41     H    0.21629   0.26827   0.23357   1.000
    H42     H    0.05546   0.50375   0.09132   1.000
    H43     H    0.79627   0.18568   0.36644   1.000
    C44     C    0.50270   0.21989   0.77382   1.000
    C45     C    0.50440   0.24608   0.68626   1.000
    C46     C    0.35981   0.25625   0.73576   1.000
    C47     C    0.57336   0.19326   0.83687   1.000
    C48     C    0.57838   0.24851   0.61692   1.000
    C49     C    0.24270   0.45894   0.50440   1.000
    C50     C    0.23867   0.55172   0.51547   1.000
    C51     C    0.37391   0.50421   0.56354   1.000
    C52     C    0.17603   0.39502   0.46467   1.000
    C53     C    0.16613   0.61815   0.49144   1.000
    C54     C    0.00000   0.72006   0.22653   1.000
    C55     C    0.00000   0.74623   0.31423   1.000
    C56     C    0.14128   0.75669   0.26522   1.000
    C57     C    0.92822   0.69341   0.16312   1.000
    C58     C    0.92267   0.74843   0.38355   1.000
    C59     C    0.25753   0.95899   0.49502   1.000
    C60     C    0.26185   0.05169   0.48356   1.000
    C61     C    0.12626   0.00400   0.43613   1.000
    C62     C    0.32404   0.89521   0.53485   1.000
    C63     C    0.33400   0.11867   0.50736   1.000
    C64     C    0.49760   0.27911   0.27404   1.000
    C65     C    0.49589   0.25326   0.18637   1.000
    C66     C    0.64064   0.24374   0.23556   1.000
    C67     C    0.42676   0.30528   0.33711   1.000
    C68     C    0.42166   0.25117   0.11729   1.000
    C69     C    0.75760   0.04082   0.00000   1.000
    C70     C    0.76172   0.94810   0.01552   1.000
    C71     C    0.62644   0.99582   0.06344   1.000
    C72     C    0.82418   0.10466   0.96455   1.000
    C73     C    0.83412   0.88149   0.99135   1.000
    C74     C    0.00326   0.77983   0.72589   1.000
    C75     C    0.00533   0.75332   0.81330   1.000
    C76     C    0.86046   0.74371   0.76440   1.000
    C77     C    0.07409   0.80674   0.66320   1.000
    C78     C    0.07982   0.75122   0.88221   1.000
    C79     C    0.74345   0.54127   0.99533   1.000
    C80     C    0.73905   0.44853   0.98375   1.000
    C81     C    0.87447   0.49608   0.93598   1.000
    C82     C    0.67693   0.60508   0.03524   1.000
    C83     C    0.66696   0.38149   0.00752   1.000
    C84     C    0.49756   0.77995   0.22594   1.000
    C85     C    0.49587   0.75370   0.31345   1.000
    C86     C    0.64046   0.74360   0.26402   1.000
    C87     C    0.42685   0.80669   0.16296   1.000
    C88     C    0.42171   0.75133   0.38256   1.000
    C89     C    0.75746   0.54112   0.49564   1.000
    C90     C    0.76147   0.44833   0.48455   1.000
    C91     C    0.62627   0.49588   0.43643   1.000
    C92     C    0.82419   0.60501   0.53535   1.000
    C93     C    0.83396   0.38186   0.50859   1.000
    C94     C    0.00171   0.27998   0.77332   1.000
    C95     C    0.00393   0.25377   0.68568   1.000
    C96     C    0.85915   0.24327   0.73445   1.000
    C97     C    0.07205   0.30665   0.83666   1.000
    C98     C    0.07823   0.25158   0.61665   1.000
    C99     C    0.74371   0.04106   0.50373   1.000
    O100    O    0.04675   0.21552   0.54346   1.000
    O101    O    0.71240   0.17632   0.43206   1.000
    O102    O    0.58838   0.09372   0.46295   1.000
    O103    O    0.58691   0.90329   0.46035   1.000
    C104    C    0.73924   0.94838   0.51528   1.000
    C105    C    0.87486   0.99596   0.56282   1.000
    C106    C    0.67705   0.10499   0.46435   1.000
    C107    C    0.66700   0.88146   0.49147   1.000
    C108    C    0.50251   0.72092   0.72579   1.000
    C109    C    0.50428   0.74675   0.81346   1.000
    C110    C    0.35948   0.75610   0.76440   1.000
    C111    C    0.57332   0.69479   0.66271   1.000
    C112    C    0.57857   0.74887   0.88246   1.000
    C113    C    0.24271   0.95912   0.99550   1.000
    C114    C    0.23856   0.05183   0.98428   1.000
    C115    C    0.37386   0.00418   0.93633   1.000
    C116    C    0.17616   0.89526   0.03523   1.000
    C117    C    0.16610   0.11836   0.00837   1.000
    C118    C    0.00000   0.22071   0.27334   1.000
    C119    C    0.00000   0.24694   0.18587   1.000
    C120    C    0.14071   0.25671   0.23412   1.000
    C121    C    0.92781   0.19425   0.33652   1.000
    C122    C    0.92068   0.24886   0.11739   1.000
    C123    C    0.25698   0.45885   0.00000   1.000
    C124    C    0.26142   0.55155   0.01607   1.000
    C125    C    0.12569   0.50404   0.06311   1.000
    C126    C    0.32356   0.39504   0.96457   1.000
    C127    C    0.33365   0.61854   0.99255   1.000
    N128    N    0.41055   0.22675   0.80381   1.000
    N129    N    0.41376   0.26906   0.66443   1.000
    N130    N    0.32936   0.43014   0.53534   1.000
    N131    N    0.32289   0.57907   0.55229   1.000
    N132    N    0.09085   0.72710   0.19684   1.000
    N133    N    0.08707   0.76938   0.33643   1.000
    N134    N    0.17068   0.93014   0.46452   1.000
    N135    N    0.17753   0.07887   0.44697   1.000
    N136    N    0.58984   0.27276   0.30387   1.000
    N137    N    0.58661   0.23089   0.16420   1.000
    N138    N    0.67092   0.06975   0.03510   1.000
    N139    N    0.67750   0.92092   0.05236   1.000
    N140    N    0.91091   0.77341   0.69620   1.000
    N141    N    0.91476   0.73054   0.83548   1.000
    N142    N    0.83022   0.57007   0.96462   1.000
    N143    N    0.82317   0.42131   0.94682   1.000
    N144    N    0.58972   0.77314   0.19598   1.000
    N145    N    0.58648   0.73074   0.33534   1.000
    N146    N    0.67082   0.56995   0.46466   1.000
    N147    N    0.67725   0.42100   0.44769   1.000
    N148    N    0.90940   0.27293   0.80290   1.000
    N149    N    0.91352   0.23057   0.66331   1.000
    N150    N    0.83055   0.06986   0.53428   1.000
    N151    N    0.82344   0.92119   0.55207   1.000
    N152    N    0.41024   0.72718   0.69603   1.000
    N153    N    0.41357   0.76900   0.83570   1.000
    N154    N    0.32938   0.93023   0.96465   1.000
    N155    N    0.32277   0.07905   0.94745   1.000
    N156    N    0.09065   0.22719   0.30265   1.000
    N157    N    0.08604   0.26972   0.16320   1.000
    N158    N    0.17001   0.43008   0.03452   1.000
    N159    N    0.17711   0.57880   0.05265   1.000
    O160    O    0.54732   0.16755   0.91091   1.000
    O161    O    0.66258   0.19917   0.81449   1.000
    O162    O    0.65855   0.21835   0.62705   1.000
    O163    O    0.54668   0.28493   0.54420   1.000
    O164    O    0.21179   0.32392   0.43203   1.000
    O165    O    0.08731   0.40591   0.46313   1.000
    O166    O    0.08666   0.59526   0.45950   1.000
    O167    O    0.18915   0.69919   0.50387   1.000
    O168    O    0.95456   0.66782   0.08903   1.000
    O169    O    0.83890   0.69919   0.18528   1.000
    O170    O    0.84239   0.71851   0.37327   1.000
    O171    O    0.95439   0.78446   0.45677   1.000
    O172    O    0.28830   0.82394   0.56699   1.000
    O173    O    0.41273   0.90651   0.53696   1.000
    O174    O    0.41471   0.09711   0.53722   1.000
    O175    O    0.30927   0.19956   0.49681   1.000
    O176    O    0.45259   0.33249   0.41078   1.000
    O177    O    0.33758   0.29721   0.31505   1.000
    O178    O    0.34160   0.28140   0.12807   1.000
    O179    O    0.45313   0.21514   0.04421   1.000
    O180    O    0.78835   0.17559   0.93181   1.000
    O181    O    0.91292   0.09391   0.96312   1.000
    O182    O    0.91370   0.90408   0.95957   1.000
    O183    O    0.81093   0.80048   0.00344   1.000
    O184    O    0.04844   0.83576   0.59024   1.000
    O185    O    0.16328   0.79731   0.68470   1.000
    O186    O    0.15991   0.78138   0.87111   1.000
    O187    O    0.04859   0.71530   0.95535   1.000
    O188    O    0.71244   0.67634   0.06779   1.000
    O189    O    0.58827   0.59372   0.03698   1.000
    O190    O    0.58648   0.40316   0.03787   1.000
    O191    O    0.69127   0.30056   0.99645   1.000
    O192    O    0.45284   0.83247   0.08894   1.000
    O193    O    0.33763   0.80082   0.18536   1.000
    O194    O    0.34157   0.78131   0.37182   1.000
    O195    O    0.45324   0.71523   0.45553   1.000
    O196    O    0.78855   0.67618   0.56799   1.000
    O197    O    0.91289   0.59404   0.53692   1.000
    O198    O    0.91346   0.40470   0.54050   1.000
    O199    O    0.81090   0.30082   0.49619   1.000
    O200    O    0.04553   0.33232   0.91071   1.000
    O201    O    0.16138   0.30083   0.81468   1.000
    O202    O    0.15844   0.28156   0.62733   1.000
    O203    O    0.69094   0.80054   0.50321   1.000
    O204    O    0.54745   0.66766   0.58901   1.000
    O205    O    0.66251   0.70274   0.68478   1.000
    O206    O    0.65863   0.71872   0.87145   1.000
    O207    O    0.54713   0.78482   0.95560   1.000
    O208    O    0.21209   0.82430   0.06780   1.000
    O209    O    0.08742   0.90603   0.03682   1.000
    O210    O    0.08658   0.09574   0.04025   1.000
    O211    O    0.18921   0.19936   0.99606   1.000
    O212    O    0.95414   0.16645   0.40979   1.000
    O213    O    0.83852   0.20272   0.31519   1.000
    O214    O    0.84069   0.21860   0.12883   1.000
    O215    O    0.95146   0.28480   0.04412   1.000
    O216    O    0.28795   0.32379   0.93195   1.000
    O217    O    0.41223   0.40632   0.96299   1.000
    O218    O    0.41432   0.59694   0.96261   1.000
    O219    O    0.30908   0.69945   0.00340   1.000
loop_
    _geom_bond_atom_site_label_1
    _geom_bond_atom_site_label_2
    _geom_bond_distance
    _geom_bond_site_symmetry_2
    _ccdc_geom_bond_type
    C69    C70       1.41281  1_545   S
    C69    N138      1.41006      .   S
    C69    C72       1.45100  1_554   S
    C123   C124      1.41322      .   S
    C123   N158      1.40968      .   S
    C123   C126      1.45006  1_554   S
    O219   Zn11      2.03619  1_554   S
    O219   C127      1.27350  1_554   S
    O183   Zn5       2.03504  1_554   S
    O183   C73       1.27264  1_554   S
    C83    O190      1.27437      .   S
    C83    C80       1.47946  1_554   S
    C83    O191      1.27338  1_554   S
    C117   O210      1.27499      .   S
    C117   C114      1.47918  1_554   S
    C117   O211      1.27265  1_554   S
    C70    N139      1.38271      .   S
    C70    C73       1.47950  1_554   S
    C124   N159      1.38228      .   S
    C124   C127      1.47922  1_554   S
    N158   Zn13      2.06314      .   S
    N158   C125      1.34822      .   S
    N138   Zn3       2.06101      .   S
    N138   C71       1.34837  1_545   S
    C116   O209      1.26827      .   S
    C116   O208      1.28259      .   S
    C116   C113      1.47689  1_554   S
    C82    O189      1.26814      .   S
    C82    O188      1.28205      .   S
    C82    C79       1.47661  1_554   S
    O209   Zn17      1.95984  1_554   S
    O189   Zn18      1.96035  1_554   S
    Zn13   N157      2.02851      .   S
    Zn13   O200      2.20067  1_554   S
    Zn13   O211      2.03243  1_554   S
    O190   Zn18      1.98387  1_554   S
    Zn3    N137      2.02247      .   S
    Zn3    O160      2.22192  1_554   S
    Zn3    O191      2.03812  1_554   S
    O210   Zn17      1.98633  1_544   S
    O215   C122      1.32324      .   S
    O215   Zn6       2.04359  1_554   S
    O179   C68       1.32323      .   S
    O179   Zn12      2.04135  1_554   S
    N139   C71       1.34727      .   S
    N139   Zn4       2.06507      .   S
    N159   C125      1.34694      .   S
    N159   Zn14      2.06060      .   S
    C125   H42       1.08569      .   S
    C71    H26       1.08575      .   S
    Zn4    O188      2.13747      .   S
    Zn4    N144      2.07635      .   S
    Zn4    O207      2.04111  1_554   S
    Zn14   O208      2.12984      .   S
    Zn14   N132      2.08569      .   S
    Zn14   O187      2.04766  1_554   S
    O192   C87       1.25727      .   S
    O192   Zn11      2.22327  1_554   S
    O168   C57       1.25783      .   S
    O168   Zn5       2.22375  1_554   S
    C68    O178      1.23319      .   S
    C68    C65       1.49462      .   S
    C122   O214      1.23359      .   S
    C122   C119      1.53995  1_655   S
    H24    O169      1.02247      .   S
    H34    O193      1.02266      .   S
    C87    O193      1.31340      .   S
    C87    C84       1.45021      .   S
    C57    O169      1.31384      .   S
    C57    C54       1.46345  1_655   S
    N157   C119      1.31337      .   S
    N157   C120      1.35157      .   S
    N137   C65       1.37185      .   S
    N137   C66       1.35090      .   S
    C119   C118      1.40130      .   S
    C65    C64       1.40162      .   S
    N144   C84       1.38873      .   S
    N144   C86       1.34475      .   S
    N132   C54       1.37012      .   S
    N132   C56       1.34523      .   S
    C84    C85       1.40222      .   S
    C54    C55       1.40313      .   S
    H41    C120      1.08491      .   S
    C120   N156      1.34547      .   S
    H25    C66       1.08492      .   S
    C66    N136      1.34499      .   S
    H31    C86       1.08494      .   S
    C86    N145      1.35077      .   S
    C56    H22       1.08479      .   S
    C56    N133      1.35054      .   S
    C118   N156      1.36457      .   S
    C118   C121      1.46567  1_455   S
    C64    N136      1.38846      .   S
    C64    C67       1.44952      .   S
    N156   Zn2       2.09095      .   S
    N136   Zn8       2.07713      .   S
    C85    N145      1.37169      .   S
    C85    C88       1.49481      .   S
    C55    N133      1.32613      .   S
    C55    C58       1.52897  1_455   S
    O177   C67       1.31384      .   S
    O177   H27       1.02203      .   S
    O213   C121      1.31348      .   S
    O213   H43       1.02208      .   S
    N145   Zn7       2.02307      .   S
    N133   Zn1       2.03160      .   S
    C121   O212      1.25792      .   S
    C67    O176      1.25717      .   S
    O194   C88       1.23304      .   S
    O170   C58       1.23276      .   S
    C88    O195      1.32378      .   S
    C58    O171      1.32572      .   S
    H23    C61       1.08571      .   S
    H33    C91       1.08576      .   S
    O212   Zn9       2.21187      .   S
    O176   Zn32      2.22825      .   S
    O164   Zn2       2.12456      .   S
    O164   C52       1.28246      .   S
    O101   Zn8       2.13760      .   S
    O101   C106      1.28190      .   S
    Zn2    N135      2.06055      .   S
    Zn2    O100      2.05034      .   S
    Zn8    N147      2.06481      .   S
    Zn8    O163      2.04278      .   S
    C61    N135      1.34724      .   S
    C61    N134      1.34779  1_545   S
    C91    N147      1.34724      .   S
    C91    N146      1.34851      .   S
    N135   C60       1.38256      .   S
    N147   C90       1.38257      .   S
    O195   Zn0       2.04408      .   S
    O171   Zn10      2.04975      .   S
    O166   C53       1.27508      .   S
    O166   Zn15      1.98431      .   S
    Zn7    N146      2.05894      .   S
    Zn7    O203      2.03593      .   S
    Zn7    O204      2.22649      .   S
    O103   C107      1.27475      .   S
    O103   Zn16      1.98726      .   S
    Zn1    N134      2.06261      .   S
    Zn1    O167      2.03329      .   S
    Zn1    O184      2.20956      .   S
    O102   C106      1.26813      .   S
    O102   Zn16      1.95897  1_545   S
    O165   C52       1.26823      .   S
    O165   Zn15      1.95964      .   S
    C106   C99       1.47675      .   S
    N134   C59       1.38589      .   S
    N146   C89       1.38647      .   S
    C52    C49       1.47705      .   S
    C60    C59       1.40317  1_545   S
    C60    C63       1.47862      .   S
    C90    C89       1.40315      .   S
    C90    C93       1.47934      .   S
    C53    O167      1.27255      .   S
    C53    C50       1.47931      .   S
    C107   O203      1.27355      .   S
    C107   C104      1.47889      .   S
    C59    C62       1.47678      .   S
    C89    C92       1.47717      .   S
    O199   C93       1.27261      .   S
    O199   Zn9       2.03359      .   S
    O175   C63       1.27370      .   S
    O175   Zn32      2.03327      .   S
    Zn16   O173      1.96281      .   S
    Zn16   O174      1.98804  1_565   S
    Zn15   O197      1.95936  1_455   S
    Zn15   O198      1.98435  1_455   S
    C99    C104      1.40320  1_545   S
    C99    N150      1.38568      .   S
    C49    C50       1.40298      .   S
    C49    N130      1.38643      .   S
    C63    O174      1.27440      .   S
    C93    O198      1.27503      .   S
    C104   N151      1.38239      .   S
    C50    N131      1.38259      .   S
    N150   Zn9       2.06089      .   S
    N150   C105      1.34818  1_545   S
    C62    O173      1.26857      .   S
    C62    O172      1.28252      .   S
    N130   Zn32      2.05827      .   S
    N130   C51       1.34845      .   S
    C92    O197      1.26804      .   S
    C92    O196      1.28269      .   S
    Zn9    N149      2.03065      .   S
    Zn32   N129      2.02306      .   S
    O100   C98       1.32445      .   S
    O163   C48       1.32344      .   S
    N151   C105      1.34711      .   S
    N151   Zn10      2.05868      .   S
    N131   C51       1.34722      .   S
    N131   Zn0       2.06359      .   S
    C105   H36       1.08568      .   S
    C51    H20       1.08574      .   S
    Zn0    O172      2.13493      .   S
    Zn0    N152      2.07715      .   S
    Zn10   O196      2.12326      .   S
    Zn10   N140      2.08273      .   S
    O204   C111      1.25733      .   S
    O184   C77       1.25706      .   S
    C98    O202      1.23306      .   S
    C98    C95       1.49518      .   S
    C48    O162      1.23303      .   S
    C48    C45       1.49563      .   S
    H30    O185      1.02219      .   S
    H40    O205      1.02204      .   S
    C111   O205      1.31390      .   S
    C111   C108      1.44913      .   S
    C77    O185      1.31418      .   S
    C77    C74       1.44920      .   S
    N149   C95       1.37101  1_655   S
    N149   C96       1.35095      .   S
    N129   C45       1.37185      .   S
    N129   C46       1.35070      .   S
    C95    C94       1.40286      .   S
    C45    C44       1.40261      .   S
    N152   C108      1.38852      .   S
    N152   C110      1.34488      .   S
    N140   C74       1.38907  1_655   S
    N140   C76       1.34533      .   S
    C108   C109      1.40161      .   S
    C74    C75       1.40184      .   S
    H35    C96       1.08488      .   S
    C96    N148      1.34507      .   S
    C46    H19       1.08497      .   S
    C46    N128      1.34464      .   S
    C110   H38       1.08475      .   S
    C110   N153      1.35077      .   S
    C76    H28       1.08493      .   S
    C76    N141      1.35084      .   S
    C94    N148      1.38908  1_455   S
    C94    C97       1.44869      .   S
    C44    N128      1.38882      .   S
    C44    C47       1.45005      .   S
    N148   Zn6       2.08756      .   S
    N128   Zn12      2.07827      .   S
    C75    N141      1.37147  1_455   S
    C75    C78       1.49551      .   S
    C109   N153      1.37152      .   S
    C109   C112      1.49445      .   S
    O161   C47       1.31339      .   S
    O161   H21       1.02270      .   S
    O201   C97       1.31325      .   S
    O201   H37       1.02275      .   S
    N141   Zn5       2.02251      .   S
    N153   Zn11      2.02144      .   S
    C97    O200      1.25841      .   S
    C47    O160      1.25734      .   S
    O186   C78       1.23357      .   S
    O206   C112      1.23326      .   S
    C78    O187      1.32339      .   S
    C112   O207      1.32330      .   S
    H29    C81       1.08568      .   S
    H39    C115      1.08574      .   S
    O180   Zn6       2.12750      .   S
    O180   C72       1.28264      .   S
    O216   Zn12      2.13634      .   S
    O216   C126      1.28278      .   S
    Zn6    N143      2.06023      .   S
    Zn12   N155      2.06457      .   S
    C81    N143      1.34678      .   S
    C81    N142      1.34848      .   S
    C115   N155      1.34726      .   S
    C115   N154      1.34834  1_545   S
    N143   C80       1.38209      .   S
    N155   C114      1.38271      .   S
    O182   C73       1.27506      .   S
    O182   Zn17      1.98647  1_655   S
    Zn11   N154      2.05960      .   S
    Zn5    N142      2.06157      .   S
    O218   C127      1.27444      .   S
    O218   Zn18      1.98578      .   S
    O217   C126      1.26809      .   S
    O217   Zn18      1.96368      .   S
    O181   C72       1.26816      .   S
    O181   Zn17      1.95918  1_645   S
    N142   C79       1.38629      .   S
    N154   C113      1.38625      .   S
    C80    C79       1.40349      .   S
    C114   C113      1.40278  1_545   S
    O163   Zn32      2.27717      .   S
    O171   Zn1       2.24471  1_655   S
    O179   Zn3       2.28312      .   S
    O187   Zn5       2.27887  1_455   S
    O195   Zn7       2.27884      .   S
    O100   Zn9       2.25383  1_455   S
    O207   Zn11      2.28568      .   S
    O215   Zn13      2.27877  1_655   S
