# CIF file generated by openbabel 2.4.90, see http://openbabel.sf.net
data_I
_chemical_name_common ''
_cell_length_a 14.172
_cell_length_b 15
_cell_length_c 15.368
_cell_angle_alpha 90.097
_cell_angle_beta 90.015
_cell_angle_gamma 90.035
_space_group_name_H-M_alt 'P 1'
_space_group_name_Hall 'P 1'
loop_
    _symmetry_equiv_pos_as_xyz
    x,y,z
loop_
    _atom_site_label
    _atom_site_type_symbol
    _atom_site_fract_x
    _atom_site_fract_y
    _atom_site_fract_z
    _atom_site_occupancy
    N0      N    0.82582   0.49560   0.95566   1.000
    N1      N    0.41232   0.74788   0.76666   1.000
    N2      N    0.08895   0.24826   0.23213   1.000
    N3      N    0.08933   0.74800   0.26744   1.000
    N4      N    0.91327   0.75216   0.76664   1.000
    N5      N    0.32521   0.00470   0.95601   1.000
    N6      N    0.67508   0.99527   0.04306   1.000
    N7      N    0.17445   0.50451   0.04295   1.000
    N8      N    0.41258   0.24767   0.73333   1.000
    N9      N    0.17498   0.00455   0.45567   1.000
    N10     N    0.58768   0.75217   0.26643   1.000
    N11     N    0.58781   0.25203   0.23326   1.000
    N12     N    0.82614   0.99545   0.54323   1.000
    N13     N    0.67491   0.49541   0.45615   1.000
    N14     N    0.32526   0.50467   0.54385   1.000
    N15     N    0.91189   0.25198   0.73230   1.000
    Zr16    Zr   0.50017   0.50001   0.99994   1.000
    O17     O    0.58178   0.71306   0.02559   1.000
    O18     O    0.41851   0.28694   0.97407   1.000
    O19     O    0.42097   0.71801   0.97959   1.000
    O20     O    0.57932   0.28199   0.02005   1.000
    Zr21    Zr   0.00041   0.50012   0.50001   1.000
    O22     O    0.91880   0.71321   0.52566   1.000
    O23     O    0.07919   0.71804   0.47976   1.000
    O24     O    0.08205   0.28692   0.47391   1.000
    O25     O    0.92171   0.28210   0.51979   1.000
    Zr26    Zr   0.00013   0.99999   0.99983   1.000
    O27     O    0.07877   0.21794   0.01968   1.000
    O28     O    0.92145   0.78211   0.97945   1.000
    O29     O    0.91850   0.21318   0.97381   1.000
    O30     O    0.08172   0.78685   0.02558   1.000
    Zr31    Zr   0.50023   0.00004   0.49972   1.000
    O32     O    0.57927   0.78206   0.47949   1.000
    O33     O    0.58173   0.21312   0.47404   1.000
    O34     O    0.41857   0.78695   0.52567   1.000
    O35     O    0.42103   0.21801   0.52022   1.000
    O36     O    0.86744   0.99726   0.00889   1.000
    O37     O    0.13284   0.00271   0.99038   1.000
    O38     O    0.96903   0.13502   0.89211   1.000
    O39     O    0.02964   0.12893   0.08946   1.000
    O40     O    0.03154   0.86497   0.10761   1.000
    O41     O    0.97145   0.87121   0.90978   1.000
    O42     O    0.86750   0.49743   0.49055   1.000
    O43     O    0.13299   0.50272   0.50946   1.000
    O44     O    0.97099   0.37127   0.58953   1.000
    O45     O    0.03155   0.36519   0.39212   1.000
    O46     O    0.03010   0.62885   0.41039   1.000
    O47     O    0.96985   0.63517   0.60741   1.000
    O48     O    0.36717   0.50263   0.00903   1.000
    O49     O    0.63319   0.49743   0.99025   1.000
    O50     O    0.47090   0.62879   0.90988   1.000
    O51     O    0.46953   0.36486   0.89254   1.000
    O52     O    0.53076   0.63510   0.10729   1.000
    O53     O    0.52935   0.37120   0.08999   1.000
    O54     O    0.63334   0.99737   0.50910   1.000
    O55     O    0.46946   0.86511   0.60721   1.000
    O56     O    0.47101   0.12869   0.58991   1.000
    O57     O    0.36745   0.00269   0.49008   1.000
    O58     O    0.52933   0.87127   0.40968   1.000
    O59     O    0.53082   0.13491   0.39245   1.000
loop_
    _geom_bond_atom_site_label_1
    _geom_bond_atom_site_label_2
    _geom_bond_distance
    _geom_bond_site_symmetry_2
    _ccdc_geom_bond_type
    Zr16   O17       3.42007  1_556   S
    N6     O17       4.44173      .   S
    Zr16   O18       3.42102      .   S
    N5     O18       4.44274      .   S
    Zr16   O19       3.47244      .   S
    N5     O19       4.52531  1_545   S
    Zr16   O20       3.47224  1_556   S
    N6     O20       4.52501  1_565   S
    Zr21   O22       3.42198  1_455   S
    N12    O22       4.44108      .   S
    Zr21   O23       3.46806      .   S
    N9     O23       4.52202  1_545   S
    Zr21   O24       3.42450      .   S
    N9     O24       4.44475      .   S
    Zr21   O25       3.46852  1_455   S
    N12    O25       4.52227  1_565   S
    Zr26   O27       3.46629  1_566   S
    N7     O27       4.52008      .   S
    Zr26   O28       3.46620  1_455   S
    N0     O28       4.51966      .   S
    Zr26   O29       3.42530  1_465   S
    N0     O29       4.44527      .   S
    Zr26   O30       3.42403  1_556   S
    N7     O30       4.44350      .   S
    Zr31   O32       3.47031  1_545   S
    N13    O32       4.52281      .   S
    Zr31   O33       3.42136      .   S
    N13    O33       4.44372      .   S
    Zr31   O34       3.42266  1_545   S
    N14    O34       4.44442      .   S
    Zr31   O35       3.47144      .   S
    N14    O35       4.52379      .   S
    Zr26   O36       1.88612  1_456   S
    N6     O36       2.77640      .   S
    Zr26   O37       1.88681  1_565   S
    N5     O37       2.77726      .   S
    Zr26   O38       2.65507  1_465   S
    N15    O38       3.12735      .   S
    Zr26   O39       2.40891  1_566   S
    N2     O39       2.94973      .   S
    Zr26   O40       2.65626  1_556   S
    N3     O40       3.13024      .   S
    Zr26   O41       2.40866  1_455   S
    N4     O41       2.94816      .   S
    Zr21   O42       1.88958  1_455   S
    N13    O42       2.78016      .   S
    Zr21   O43       1.88486      .   S
    N14    O43       2.77557      .   S
    Zr21   O44       2.41049  1_455   S
    N15    O44       2.95460      .   S
    Zr21   O45       2.65142      .   S
    N2     O45       3.12611      .   S
    Zr21   O46       2.41051      .   S
    N3     O46       2.95586      .   S
    Zr21   O47       2.64683  1_455   S
    N4     O47       3.11428      .   S
    Zr16   O48       1.89051  1_556   S
    N7     O48       2.78091      .   S
    Zr16   O49       1.89144      .   S
    N0     O49       2.78148      .   S
    Zr16   O50       2.41422      .   S
    N1     O50       2.95613      .   S
    Zr16   O51       2.64764      .   S
    N8     O51       3.11621      .   S
    Zr16   O52       2.64626  1_556   S
    N10    O52       3.11429      .   S
    Zr16   O53       2.41446  1_556   S
    N11    O53       2.95689      .   S
    Zr31   O54       1.89231  1_545   S
    N12    O54       2.78233      .   S
    Zr31   O55       2.65062  1_545   S
    N1     O55       3.12507      .   S
    Zr31   O56       2.41017      .   S
    N8     O56       2.95261      .   S
    Zr31   O57       1.88802      .   S
    N9     O57       2.77846      .   S
    Zr31   O58       2.40992  1_545   S
    N10    O58       2.95152      .   S
    Zr31   O59       2.64746      .   S
    N11    O59       3.12061      .   S
