# CIF file generated by openbabel 2.4.90, see http://openbabel.sf.net
data_I
_chemical_name_common ''
_cell_length_a 15.131
_cell_length_b 14.406
_cell_length_c 21.129
_cell_angle_alpha 90.026
_cell_angle_beta 90.03
_cell_angle_gamma 92.656
_space_group_name_H-M_alt 'P 1'
_space_group_name_Hall 'P 1'
loop_
    _symmetry_equiv_pos_as_xyz
    x,y,z
loop_
    _atom_site_label
    _atom_site_type_symbol
    _atom_site_fract_x
    _atom_site_fract_y
    _atom_site_fract_z
    _atom_site_occupancy
    N0      N    0.24739   0.26304   0.80860   1.000
    N1      N    0.49505   0.40427   0.56308   1.000
    N2      N    0.74740   0.26304   0.80858   1.000
    N3      N    0.25261   0.23731   0.30857   1.000
    N4      N    0.75262   0.23729   0.30856   1.000
    N5      N    0.75262   0.73693   0.19134   1.000
    N6      N    0.25261   0.73694   0.19135   1.000
    N7      N    0.99505   0.40427   0.56308   1.000
    N8      N    0.00518   0.09582   0.06307   1.000
    N9      N    0.50518   0.09584   0.06307   1.000
    N10     N    0.49483   0.90415   0.93692   1.000
    N11     N    0.99483   0.90414   0.93692   1.000
    N12     N    0.50497   0.59571   0.43691   1.000
    N13     N    0.00497   0.59570   0.43691   1.000
    N14     N    0.24739   0.76268   0.69141   1.000
    N15     N    0.74740   0.76267   0.69141   1.000
    Zr16    Zr   0.24423   0.89655   0.93430   1.000
    O17     O    0.24588   0.84370   0.00916   1.000
    O18     O    0.32675   0.89939   0.93538   1.000
    O19     O    0.16217   0.89956   0.93534   1.000
    O20     O    0.24557   0.00902   0.90375   1.000
    Zr21    Zr   0.75558   0.60337   0.43420   1.000
    O22     O    0.75390   0.49103   0.40369   1.000
    O23     O    0.75397   0.65614   0.50912   1.000
    O24     O    0.67306   0.60052   0.43533   1.000
    O25     O    0.83763   0.60033   0.43525   1.000
    Zr26    Zr   0.24443   0.39661   0.56570   1.000
    O27     O    0.16238   0.39965   0.56468   1.000
    O28     O    0.24604   0.34384   0.49080   1.000
    O29     O    0.32695   0.39945   0.56460   1.000
    O30     O    0.24611   0.50894   0.59624   1.000
    Zr31    Zr   0.25557   0.60337   0.43426   1.000
    O32     O    0.17306   0.60053   0.43537   1.000
    O33     O    0.25389   0.49104   0.40373   1.000
    O34     O    0.33763   0.60033   0.43529   1.000
    O35     O    0.25396   0.65614   0.50915   1.000
    Zr36    Zr   0.75578   0.10342   0.06569   1.000
    O37     O    0.83784   0.10041   0.06465   1.000
    O38     O    0.75443   0.99095   0.09623   1.000
    O39     O    0.67327   0.10059   0.06461   1.000
    O40     O    0.75413   0.15627   0.99081   1.000
    Zr41    Zr   0.74444   0.39660   0.56572   1.000
    O42     O    0.82696   0.39945   0.56461   1.000
    O43     O    0.66238   0.39964   0.56469   1.000
    O44     O    0.74612   0.50894   0.59626   1.000
    O45     O    0.74605   0.34383   0.49083   1.000
    Zr46    Zr   0.74424   0.89655   0.93430   1.000
    O47     O    0.74589   0.84370   0.00916   1.000
    O48     O    0.66218   0.89956   0.93534   1.000
    O49     O    0.74559   0.00902   0.90374   1.000
    O50     O    0.82675   0.89938   0.93538   1.000
    Zr51    Zr   0.25577   0.10342   0.06569   1.000
    O52     O    0.25443   0.99096   0.09623   1.000
    O53     O    0.17326   0.10059   0.06461   1.000
    O54     O    0.33783   0.10042   0.06465   1.000
    O55     O    0.25412   0.15627   0.99082   1.000
    O56     O    0.74485   0.85554   0.86216   1.000
    O57     O    0.24484   0.85555   0.86216   1.000
    O58     O    0.75517   0.14442   0.13782   1.000
    O59     O    0.75502   0.64429   0.36204   1.000
    O60     O    0.25501   0.64429   0.36208   1.000
    O61     O    0.24500   0.35568   0.63784   1.000
    O62     O    0.74500   0.35568   0.63783   1.000
    O63     O    0.25516   0.14443   0.13782   1.000
loop_
    _geom_bond_atom_site_label_1
    _geom_bond_atom_site_label_2
    _geom_bond_distance
    _geom_bond_site_symmetry_2
    _ccdc_geom_bond_type
    Zr16   O17       1.75641  1_556   S
    N6     O17       4.14889      .   S
    Zr16   O18       1.24747      .   S
    N10    O18       2.54126      .   S
    Zr16   O19       1.24462      .   S
    N11    O19       2.53622  1_655   S
    Zr16   O20       1.74356  1_565   S
    N0     O20       4.17506      .   S
    Zr21   O22       1.74087      .   S
    N4     O22       4.16998      .   S
    Zr21   O23       1.75634      .   S
    N15    O23       4.14851      .   S
    Zr21   O24       1.24762      .   S
    N12    O24       2.54140      .   S
    Zr21   O25       1.24451      .   S
    N13    O25       2.53609  1_455   S
    Zr26   O27       1.24451      .   S
    N7     O27       2.53608  1_655   S
    Zr26   O28       1.75593      .   S
    N3     O28       4.14736      .   S
    Zr26   O29       1.24761      .   S
    N1     O29       2.54139      .   S
    Zr26   O30       1.74106      .   S
    N14    O30       4.17034      .   S
    Zr31   O32       1.24758      .   S
    N13    O32       2.54131      .   S
    Zr31   O33       1.74097      .   S
    N3     O33       4.17019      .   S
    Zr31   O34       1.24455      .   S
    N12    O34       2.53619      .   S
    Zr31   O35       1.75591      .   S
    N14    O35       4.14777      .   S
    Zr36   O37       1.24461      .   S
    N8     O37       2.53620  1_455   S
    Zr36   O38       1.74348  1_545   S
    N5     O38       4.17472      .   S
    Zr36   O39       1.24746      .   S
    N9     O39       2.54124      .   S
    Zr36   O40       1.75672  1_554   S
    N2     O40       4.14981      .   S
    Zr41   O42       1.24759      .   S
    N7     O42       2.54131      .   S
    Zr41   O43       1.24454      .   S
    N1     O43       2.53617      .   S
    Zr41   O44       1.74101      .   S
    N15    O44       4.17022      .   S
    Zr41   O45       1.75595      .   S
    N4     O45       4.14796      .   S
    Zr46   O47       1.75642  1_556   S
    N5     O47       4.14891      .   S
    Zr46   O48       1.24464      .   S
    N10    O48       2.53629      .   S
    Zr46   O49       1.74361  1_565   S
    N2     O49       4.17518      .   S
    Zr46   O50       1.24742      .   S
    N11    O50       2.54113      .   S
    Zr51   O52       1.74348  1_545   S
    N6     O52       4.17470      .   S
    Zr51   O53       1.24743      .   S
    N8     O53       2.54116      .   S
    Zr51   O54       1.24465      .   S
    N9     O54       2.53631      .   S
    Zr51   O55       1.75664  1_554   S
    N0     O55       4.14960      .   S
    Zr46   O56       1.63458      .   S
    N15    O56       3.84820      .   S
    Zr16   O57       1.63457      .   S
    N14    O57       3.84818      .   S
    Zr36   O58       1.63447      .   S
    N4     O58       3.84788      .   S
    Zr21   O59       1.63514      .   S
    N5     O59       3.84687      .   S
    Zr31   O60       1.63551      .   S
    N6     O60       3.84767      .   S
    Zr26   O61       1.63463      .   S
    N0     O61       3.84822      .   S
    N2     O62       3.84813      .   S
    Zr41   O62       1.63405      .   S
    N3     O63       3.84804      .   S
    Zr51   O63       1.63453      .   S
