# CIF file generated by openbabel 2.4.90, see http://openbabel.sf.net
data_I
_chemical_name_common ''
_cell_length_a 15.131
_cell_length_b 14.406
_cell_length_c 21.129
_cell_angle_alpha 90.026
_cell_angle_beta 90.03
_cell_angle_gamma 92.656
_space_group_name_H-M_alt 'P 1'
_space_group_name_Hall 'P 1'
loop_
    _symmetry_equiv_pos_as_xyz
    x,y,z
loop_
    _atom_site_label
    _atom_site_type_symbol
    _atom_site_fract_x
    _atom_site_fract_y
    _atom_site_fract_z
    _atom_site_occupancy
    N0      N    0.24739   0.26304   0.80860   1.000
    N1      N    0.49505   0.40427   0.56308   1.000
    N2      N    0.74740   0.26304   0.80858   1.000
    N3      N    0.25261   0.23731   0.30857   1.000
    N4      N    0.75262   0.23729   0.30856   1.000
    N5      N    0.75262   0.73693   0.19134   1.000
    N6      N    0.25261   0.73694   0.19135   1.000
    N7      N    0.99505   0.40427   0.56308   1.000
    N8      N    0.00518   0.09582   0.06307   1.000
    N9      N    0.50518   0.09584   0.06307   1.000
    N10     N    0.49483   0.90415   0.93692   1.000
    N11     N    0.99483   0.90414   0.93692   1.000
    N12     N    0.50497   0.59571   0.43691   1.000
    N13     N    0.00497   0.59570   0.43691   1.000
    N14     N    0.24739   0.76268   0.69141   1.000
    N15     N    0.74740   0.76267   0.69141   1.000
    Zr16    Zr   0.24423   0.89655   0.93430   1.000
    O17     O    0.24588   0.84370   0.00916   1.000
    O18     O    0.32675   0.89939   0.93538   1.000
    O19     O    0.24318   0.84670   0.86476   1.000
    O20     O    0.16217   0.89956   0.93534   1.000
    O21     O    0.24557   0.00902   0.90375   1.000
    O22     O    0.24651   0.86439   0.85957   1.000
    Zr23    Zr   0.75558   0.60337   0.43420   1.000
    O24     O    0.75672   0.65314   0.36459   1.000
    O25     O    0.75332   0.63544   0.35949   1.000
    O26     O    0.75390   0.49103   0.40369   1.000
    O27     O    0.75397   0.65614   0.50912   1.000
    O28     O    0.67306   0.60052   0.43533   1.000
    O29     O    0.83763   0.60033   0.43525   1.000
    Zr30    Zr   0.24443   0.39661   0.56570   1.000
    O31     O    0.16238   0.39965   0.56468   1.000
    O32     O    0.24604   0.34384   0.49080   1.000
    O33     O    0.24670   0.36453   0.64043   1.000
    O34     O    0.24329   0.34684   0.63525   1.000
    O35     O    0.32695   0.39945   0.56460   1.000
    O36     O    0.24611   0.50894   0.59624   1.000
    Zr37    Zr   0.25557   0.60337   0.43426   1.000
    O38     O    0.25671   0.65314   0.36462   1.000
    O39     O    0.25331   0.63545   0.35953   1.000
    O40     O    0.17306   0.60053   0.43537   1.000
    O41     O    0.25389   0.49104   0.40373   1.000
    O42     O    0.33763   0.60033   0.43529   1.000
    O43     O    0.25396   0.65614   0.50915   1.000
    Zr44    Zr   0.75578   0.10342   0.06569   1.000
    O45     O    0.83784   0.10041   0.06465   1.000
    O46     O    0.75443   0.99095   0.09623   1.000
    O47     O    0.67327   0.10059   0.06461   1.000
    O48     O    0.75413   0.15627   0.99081   1.000
    O49     O    0.75350   0.13557   0.14041   1.000
    O50     O    0.75683   0.15327   0.13523   1.000
    Zr51    Zr   0.74444   0.39660   0.56572   1.000
    O52     O    0.82696   0.39945   0.56461   1.000
    O53     O    0.66238   0.39964   0.56469   1.000
    O54     O    0.74612   0.50894   0.59626   1.000
    O55     O    0.74330   0.34683   0.63522   1.000
    O56     O    0.74670   0.36453   0.64044   1.000
    O57     O    0.74605   0.34383   0.49083   1.000
    Zr58    Zr   0.74424   0.89655   0.93430   1.000
    O59     O    0.74589   0.84370   0.00916   1.000
    O60     O    0.66218   0.89956   0.93534   1.000
    O61     O    0.74559   0.00902   0.90374   1.000
    O62     O    0.74651   0.86439   0.85957   1.000
    O63     O    0.74319   0.84670   0.86476   1.000
    O64     O    0.82675   0.89938   0.93538   1.000
    Zr65    Zr   0.25577   0.10342   0.06569   1.000
    O66     O    0.25443   0.99096   0.09623   1.000
    O67     O    0.17326   0.10059   0.06461   1.000
    O68     O    0.33783   0.10042   0.06465   1.000
    O69     O    0.25350   0.13559   0.14042   1.000
    O70     O    0.25683   0.15328   0.13523   1.000
    O71     O    0.25412   0.15627   0.99082   1.000
loop_
    _geom_bond_atom_site_label_1
    _geom_bond_atom_site_label_2
    _geom_bond_distance
    _geom_bond_site_symmetry_2
    _ccdc_geom_bond_type
    Zr16   O17       1.75641  1_556   S
    N6     O17       4.14889      .   S
    Zr16   O18       1.24747      .   S
    N10    O18       2.54126      .   S
    Zr16   O19       1.63496      .   S
    N14    O19       3.85842      .   S
    Zr16   O20       1.24462      .   S
    N11    O20       2.53622  1_655   S
    Zr16   O21       1.74356  1_565   S
    N0     O21       4.17506      .   S
    Zr16   O22       1.64613      .   S
    N14    O22       3.84301      .   S
    Zr23   O24       1.63635      .   S
    N5     O24       3.85622      .   S
    Zr23   O25       1.64583      .   S
    N5     O25       3.84257      .   S
    Zr23   O26       1.74087      .   S
    N4     O26       4.16998      .   S
    Zr23   O27       1.75634      .   S
    N15    O27       4.14851      .   S
    Zr23   O28       1.24762      .   S
    N12    O28       2.54140      .   S
    Zr23   O29       1.24451      .   S
    N13    O29       2.53609  1_455   S
    Zr30   O31       1.24451      .   S
    N7     O31       2.53608  1_655   S
    Zr30   O32       1.75593      .   S
    N3     O32       4.14736      .   S
    Zr30   O33       1.64610      .   S
    N0     O33       3.84314      .   S
    Zr30   O34       1.63511      .   S
    N0     O34       3.85838      .   S
    Zr30   O35       1.24761      .   S
    N1     O35       2.54139      .   S
    Zr30   O36       1.74106      .   S
    N14    O36       4.17034      .   S
    Zr37   O38       1.63677      .   S
    N6     O38       3.85696      .   S
    Zr37   O39       1.64613      .   S
    N6     O39       3.84344      .   S
    Zr37   O40       1.24758      .   S
    N13    O40       2.54131      .   S
    Zr37   O41       1.74097      .   S
    N3     O41       4.17019      .   S
    Zr37   O42       1.24455      .   S
    N12    O42       2.53619      .   S
    Zr37   O43       1.75591      .   S
    N14    O43       4.14777      .   S
    Zr44   O45       1.24461      .   S
    N8     O45       2.53620  1_455   S
    Zr44   O46       1.74348  1_545   S
    N5     O46       4.17472      .   S
    Zr44   O47       1.24746      .   S
    N9     O47       2.54124      .   S
    Zr44   O48       1.75672  1_554   S
    N2     O48       4.14981      .   S
    Zr44   O49       1.64603      .   S
    N4     O49       3.84272      .   S
    Zr44   O50       1.63486      .   S
    N4     O50       3.85812      .   S
    Zr51   O52       1.24759      .   S
    N7     O52       2.54131      .   S
    Zr51   O53       1.24454      .   S
    N1     O53       2.53617      .   S
    Zr51   O54       1.74101      .   S
    N15    O54       4.17022      .   S
    Zr51   O55       1.63420      .   S
    N2     O55       3.85865      .   S
    Zr51   O56       1.64587      .   S
    N2     O56       3.84269      .   S
    Zr51   O57       1.75595      .   S
    N4     O57       4.14796      .   S
    Zr58   O59       1.75642  1_556   S
    N5     O59       4.14891      .   S
    Zr58   O60       1.24464      .   S
    N10    O60       2.53629      .   S
    Zr58   O61       1.74361  1_565   S
    N2     O61       4.17518      .   S
    Zr58   O62       1.64614      .   S
    N15    O62       3.84304      .   S
    Zr58   O63       1.63497      .   S
    N15    O63       3.85844      .   S
    Zr58   O64       1.24742      .   S
    N11    O64       2.54113      .   S
    Zr65   O66       1.74348  1_545   S
    N6     O66       4.17470      .   S
    Zr65   O67       1.24743      .   S
    N8     O67       2.54116      .   S
    Zr65   O68       1.24465      .   S
    N9     O68       2.53631      .   S
    Zr65   O69       1.64609      .   S
    N3     O69       3.84288      .   S
    Zr65   O70       1.63493      .   S
    N3     O70       3.85828      .   S
    Zr65   O71       1.75664  1_554   S
    N0     O71       4.14960      .   S
