# CIF file generated by openbabel 2.4.90, see http://openbabel.sf.net
data_I
_chemical_name_common ''
_cell_length_a 18.597
_cell_length_b 22.63
_cell_length_c 16.545
_cell_angle_alpha 107.033
_cell_angle_beta 90.063
_cell_angle_gamma 114.039
_space_group_name_H-M_alt 'P 1'
_space_group_name_Hall 'P 1'
loop_
    _symmetry_equiv_pos_as_xyz
    x,y,z
loop_
    _atom_site_label
    _atom_site_type_symbol
    _atom_site_fract_x
    _atom_site_fract_y
    _atom_site_fract_z
    _atom_site_occupancy
    Zn0     Zn   0.07267   0.83591   0.72932   1.000
    Zn1     Zn   0.57267   0.33591   0.72932   1.000
    Zn2     Zn   0.57266   0.83591   0.72932   1.000
    Zn3     Zn   0.23741   0.16365   0.77075   1.000
    Zn4     Zn   0.23740   0.66365   0.77075   1.000
    Zn5     Zn   0.73739   0.16365   0.77075   1.000
    Zn6     Zn   0.73739   0.66365   0.77075   1.000
    Zn7     Zn   0.42732   0.16413   0.27070   1.000
    Zn8     Zn   0.42731   0.66413   0.27070   1.000
    Zn9     Zn   0.92731   0.16413   0.27070   1.000
    Zn10    Zn   0.92730   0.66413   0.27070   1.000
    Zn11    Zn   0.26259   0.33638   0.22927   1.000
    Zn12    Zn   0.26259   0.83638   0.22927   1.000
    Zn13    Zn   0.76258   0.33638   0.22927   1.000
    Zn14    Zn   0.76258   0.83638   0.22927   1.000
    Zn15    Zn   0.12467   0.00006   0.74999   1.000
    Zn16    Zn   0.12466   0.50007   0.74999   1.000
    Zn17    Zn   0.62465   0.00007   0.74999   1.000
    Zn18    Zn   0.62465   0.50007   0.74999   1.000
    Zn19    Zn   0.37533   0.99997   0.25000   1.000
    Zn20    Zn   0.37533   0.49998   0.25000   1.000
    Zn21    Zn   0.87532   0.99997   0.25000   1.000
    Zn22    Zn   0.87532   0.49997   0.25000   1.000
    Zn23    Zn   0.07268   0.33590   0.72932   1.000
    H24     H    0.17098   0.44181   0.83808   1.000
    H25     H    0.17098   0.94182   0.83808   1.000
    H26     H    0.67097   0.44182   0.83808   1.000
    H27     H    0.67096   0.94182   0.83808   1.000
    H28     H    0.22981   0.05732   0.66236   1.000
    H29     H    0.22980   0.55732   0.66236   1.000
    H30     H    0.72979   0.05732   0.66236   1.000
    H31     H    0.72979   0.55732   0.66236   1.000
    H32     H    0.32902   0.05822   0.16194   1.000
    H33     H    0.32902   0.55823   0.16194   1.000
    H34     H    0.82901   0.05822   0.16194   1.000
    H35     H    0.82900   0.55822   0.16194   1.000
    H36     H    0.27019   0.44271   0.33765   1.000
    H37     H    0.27018   0.94272   0.33765   1.000
    H38     H    0.77018   0.44271   0.33766   1.000
    H39     H    0.77017   0.94272   0.33766   1.000
    C40     C    0.01247   0.38495   0.60336   1.000
    C41     C    0.01246   0.88495   0.60336   1.000
    C42     C    0.51245   0.38495   0.60336   1.000
    C43     C    0.51245   0.88496   0.60336   1.000
    O44     O    0.35323   0.56828   0.21923   1.000
    O45     O    0.85322   0.06828   0.21923   1.000
    O46     O    0.85322   0.56828   0.21923   1.000
    O47     O    0.47239   0.16138   0.38139   1.000
    O48     O    0.47238   0.66139   0.38139   1.000
    O49     O    0.97238   0.16138   0.38139   1.000
    O50     O    0.97237   0.66138   0.38139   1.000
    C51     C    0.12800   0.11561   0.89658   1.000
    C52     C    0.12799   0.61562   0.89658   1.000
    C53     C    0.62799   0.11561   0.89658   1.000
    C54     C    0.62799   0.61562   0.89658   1.000
    C55     C    0.48751   0.11508   0.39667   1.000
    C56     C    0.48752   0.61508   0.39660   1.000
    C57     C    0.98751   0.11508   0.39666   1.000
    C58     C    0.98750   0.61508   0.39667   1.000
    C59     C    0.37200   0.38442   0.10344   1.000
    C60     C    0.37199   0.88443   0.10344   1.000
    C61     C    0.87198   0.38442   0.10344   1.000
    C62     C    0.87198   0.88443   0.10344   1.000
    O63     O    0.03722   0.44690   0.65207   1.000
    O64     O    0.03722   0.94690   0.65206   1.000
    O65     O    0.53721   0.44690   0.65206   1.000
    O66     O    0.53721   0.94690   0.65207   1.000
    O67     O    0.14676   0.43176   0.78079   1.000
    O68     O    0.14675   0.93176   0.78079   1.000
    O69     O    0.64674   0.43176   0.78079   1.000
    O70     O    0.64674   0.93176   0.78079   1.000
    O71     O    0.02761   0.33865   0.61863   1.000
    O72     O    0.02761   0.83865   0.61863   1.000
    O73     O    0.52760   0.33865   0.61863   1.000
    O74     O    0.52759   0.83865   0.61863   1.000
    O75     O    0.09055   0.05384   0.84758   1.000
    O76     O    0.09055   0.55384   0.84758   1.000
    O77     O    0.59054   0.05384   0.84758   1.000
    O78     O    0.59053   0.55385   0.84757   1.000
    O79     O    0.21569   0.06759   0.71964   1.000
    O80     O    0.21569   0.56759   0.71964   1.000
    O81     O    0.71568   0.06759   0.71963   1.000
    O82     O    0.71567   0.56760   0.71963   1.000
    O83     O    0.18962   0.16153   0.88157   1.000
    O84     O    0.18961   0.66153   0.88157   1.000
    O85     O    0.68961   0.16153   0.88157   1.000
    O86     O    0.68960   0.66154   0.88157   1.000
    O87     O    0.46277   0.05313   0.34795   1.000
    O88     O    0.46276   0.55314   0.34796   1.000
    O89     O    0.96276   0.05313   0.34796   1.000
    O90     O    0.96275   0.55313   0.34796   1.000
    O91     O    0.35323   0.06828   0.21923   1.000
    O92     O    0.40943   0.44620   0.15243   1.000
    O93     O    0.40943   0.94620   0.15243   1.000
    O94     O    0.90942   0.44619   0.15244   1.000
    O95     O    0.90942   0.94620   0.15240   1.000
    O96     O    0.28431   0.43244   0.28038   1.000
    O97     O    0.28430   0.93244   0.28038   1.000
    O98     O    0.78429   0.43244   0.28038   1.000
    O99     O    0.78429   0.93244   0.28038   1.000
    O100    O    0.31039   0.33851   0.11840   1.000
    O101    O    0.31038   0.83851   0.11845   1.000
    O102    O    0.81037   0.33850   0.11840   1.000
    O103    O    0.81037   0.83851   0.11840   1.000
loop_
    _geom_bond_atom_site_label_1
    _geom_bond_atom_site_label_2
    _geom_bond_distance
    _geom_bond_site_symmetry_2
    _ccdc_geom_bond_type
    C60    O101      1.27910      .   S
    C60    O93       1.27986      .   S
    C61    O102      1.27872      .   S
    C61    O94       1.27989      .   S
    C62    O103      1.27875      .   S
    C62    O95       1.27967      .   S
    C59    O100      1.27873      .   S
    C59    O92       1.27984      .   S
    O100   Zn11      2.04390      .   S
    O103   Zn14      2.04388      .   S
    O102   Zn13      2.04389      .   S
    O101   Zn12      2.04313      .   S
    O95    Zn21      1.99249      .   S
    O93    Zn19      1.99216      .   S
    O92    Zn20      1.99234      .   S
    O94    Zn22      1.99226      .   S
    H35    O46       0.97066      .   S
    H34    O45       0.97064      .   S
    H32    O91       0.97064      .   S
    H33    O44       0.97064      .   S
    O91    Zn19      1.94827  1_545   S
    O44    Zn20      1.94827      .   S
    O45    Zn21      1.94826  1_545   S
    O46    Zn22      1.94829      .   S
    Zn21   O99       1.94882      .   S
    Zn21   O89       1.99406  1_565   S
    Zn22   O98       1.94884      .   S
    Zn22   O90       1.99407      .   S
    Zn20   O96       1.94885      .   S
    Zn20   O88       1.99405      .   S
    Zn19   O97       1.94885      .   S
    Zn19   O87       1.99401  1_565   S
    Zn9    O49       2.04109      .   S
    Zn7    O47       2.04112      .   S
    Zn8    O48       2.04108      .   S
    Zn10   O50       2.04110      .   S
    O96    H36       0.97057      .   S
    O97    H37       0.97058      .   S
    O98    H38       0.97071      .   S
    O99    H39       0.97071      .   S
    O87    C55       1.27991      .   S
    O90    C58       1.27989      .   S
    O89    C57       1.27986      .   S
    O88    C56       1.27954      .   S
    O50    C58       1.27920      .   S
    O49    C57       1.27917      .   S
    O47    C55       1.27916      .   S
    O48    C56       1.27875      .   S
    C43    O74       1.27914      .   S
    C43    O66       1.27989      .   S
    C42    O73       1.27920      .   S
    C42    O65       1.27986      .   S
    C41    O72       1.27919      .   S
    C41    O64       1.27986      .   S
    C40    O71       1.27915      .   S
    C40    O63       1.27989      .   S
    O74    Zn2       2.04108      .   S
    O73    Zn1       2.04105      .   S
    O72    Zn0       2.04106      .   S
    O71    Zn23      2.04108      .   S
    O65    Zn18      1.99374      .   S
    O64    Zn15      1.99381  1_565   S
    O63    Zn16      1.99366      .   S
    O66    Zn17      1.99376  1_565   S
    H29    O80       0.97069      .   S
    H30    O81       0.97052      .   S
    H31    O82       0.97053      .   S
    H28    O79       0.97070      .   S
    O82    Zn18      1.94861      .   S
    O81    Zn17      1.94862      .   S
    O80    Zn16      1.94856      .   S
    O79    Zn15      1.94855      .   S
    Zn15   O68       1.94824  1_545   S
    Zn15   O75       1.99264      .   S
    Zn16   O67       1.94852      .   S
    Zn16   O76       1.99263      .   S
    Zn17   O70       1.94824  1_545   S
    Zn17   O77       1.99265      .   S
    Zn18   O69       1.94851      .   S
    Zn18   O78       1.99256      .   S
    Zn3    O83       2.04309      .   S
    Zn4    O84       2.04309      .   S
    Zn5    O85       2.04308      .   S
    Zn6    O86       2.04308      .   S
    O70    H27       0.97073      .   S
    O69    H26       0.97075      .   S
    O68    H25       0.97074      .   S
    O67    H24       0.97072      .   S
    O78    C54       1.27987      .   S
    O75    C51       1.27986      .   S
    O76    C52       1.27986      .   S
    O77    C53       1.27985      .   S
    O86    C54       1.27914      .   S
    O83    C51       1.27914      .   S
    O84    C52       1.27914      .   S
    O85    C53       1.27914      .   S
    O67    Zn23      1.95168      .   S
    O68    Zn0       1.95167      .   S
    O69    Zn1       1.95166      .   S
    O70    Zn2       1.95168      .   S
    O79    Zn3       1.95210      .   S
    O80    Zn4       1.95211      .   S
    O81    Zn5       1.95211      .   S
    O82    Zn6       1.95210      .   S
    O91    Zn7       1.95166      .   S
    O44    Zn8       1.95165      .   S
    O45    Zn9       1.95167      .   S
    O46    Zn10      1.95166      .   S
    O96    Zn11      1.95212      .   S
    O97    Zn12      1.95213      .   S
    O98    Zn13      1.95211      .   S
    O99    Zn14      1.95213      .   S
