# CIF file generated by openbabel 2.4.90, see http://openbabel.sf.net
data_I
_chemical_name_common ''
_cell_length_a 17.2
_cell_length_b 18.534
_cell_length_c 18.532
_cell_angle_alpha 77.738
_cell_angle_beta 62.555
_cell_angle_gamma 62.555
_space_group_name_H-M_alt 'P 1'
_space_group_name_Hall 'P 1'
loop_
    _symmetry_equiv_pos_as_xyz
    x,y,z
loop_
    _atom_site_label
    _atom_site_type_symbol
    _atom_site_fract_x
    _atom_site_fract_y
    _atom_site_fract_z
    _atom_site_occupancy
    C0      C    0.29219   0.23915   0.01120   1.000
    C1      C    0.29220   0.23914   0.51124   1.000
    C2      C    0.29220   0.73914   0.01120   1.000
    C3      C    0.29220   0.73914   0.51124   1.000
    C4      C    0.79218   0.23914   0.01124   1.000
    C5      C    0.79219   0.23914   0.51124   1.000
    C6      C    0.79219   0.73914   0.01123   1.000
    C7      C    0.79219   0.73914   0.51124   1.000
    C8      C    0.29218   0.01123   0.23917   1.000
    C9      C    0.29219   0.01122   0.73918   1.000
    C10     C    0.29219   0.51122   0.23916   1.000
    C11     C    0.29221   0.51121   0.73917   1.000
    C12     C    0.79217   0.01123   0.23917   1.000
    C13     C    0.79219   0.01122   0.73918   1.000
    C14     C    0.79218   0.51122   0.23916   1.000
    C15     C    0.79220   0.51121   0.73917   1.000
    C16     C    0.30326   0.48910   0.48914   1.000
    C17     C    0.30327   0.48910   0.98915   1.000
    C18     C    0.30327   0.98910   0.48915   1.000
    C19     C    0.30328   0.98909   0.98916   1.000
    C20     C    0.80325   0.48911   0.48910   1.000
    C21     C    0.80326   0.48910   0.98915   1.000
    C22     C    0.80326   0.98910   0.48915   1.000
    C23     C    0.80327   0.98909   0.98916   1.000
    C24     C    0.03117   0.26121   0.26123   1.000
    C25     C    0.03118   0.26120   0.76124   1.000
    C26     C    0.03117   0.76120   0.26123   1.000
    C27     C    0.03119   0.76119   0.76123   1.000
    C28     C    0.53116   0.26120   0.26123   1.000
    C29     C    0.53117   0.26120   0.76124   1.000
    C30     C    0.53116   0.76120   0.26123   1.000
    C31     C    0.53117   0.76119   0.76124   1.000
    C32     C    0.20781   0.26086   0.48881   1.000
    C33     C    0.20782   0.26086   0.98881   1.000
    C34     C    0.20782   0.76086   0.48880   1.000
    C35     C    0.20782   0.76085   0.98881   1.000
    C36     C    0.70780   0.26086   0.48881   1.000
    C37     C    0.70781   0.26085   0.98881   1.000
    C38     C    0.70781   0.76086   0.48880   1.000
    C39     C    0.70782   0.76085   0.98881   1.000
    C40     C    0.20781   0.48878   0.26088   1.000
    C41     C    0.20782   0.48878   0.76088   1.000
    C42     C    0.20782   0.98878   0.26087   1.000
    C43     C    0.20783   0.98877   0.76088   1.000
    C44     C    0.70780   0.48879   0.26088   1.000
    C45     C    0.70781   0.48878   0.76089   1.000
    C46     C    0.70781   0.98878   0.26087   1.000
    C47     C    0.70782   0.98877   0.76088   1.000
    C48     C    0.19674   0.01091   0.01089   1.000
    C49     C    0.19674   0.01090   0.51090   1.000
    C50     C    0.19674   0.51090   0.01090   1.000
    C51     C    0.19675   0.51089   0.51090   1.000
    C52     C    0.69673   0.01090   0.01089   1.000
    C53     C    0.69673   0.01090   0.51090   1.000
    C54     C    0.69673   0.51090   0.01090   1.000
    C55     C    0.69674   0.51089   0.51090   1.000
    C56     C    0.46883   0.23880   0.23881   1.000
    C57     C    0.46885   0.23880   0.73882   1.000
    C58     C    0.46883   0.73880   0.23881   1.000
    C59     C    0.46885   0.73879   0.73882   1.000
    C60     C    0.96882   0.23880   0.23881   1.000
    C61     C    0.96883   0.23880   0.73882   1.000
    C62     C    0.96882   0.73880   0.23881   1.000
    C63     C    0.96884   0.73879   0.73882   1.000
loop_
    _geom_bond_atom_site_label_1
    _geom_bond_atom_site_label_2
    _geom_bond_distance
    _geom_bond_site_symmetry_2
    _ccdc_geom_bond_type
    C48    C19       1.54583  1_544   S
    C52    C23       1.54583  1_544   S
    C50    C17       1.54568  1_554   S
    C54    C21       1.54566  1_554   S
    C2     C35       1.54465  1_554   S
    C0     C33       1.54465  1_554   S
    C6     C39       1.54501  1_554   S
    C4     C37       1.54513  1_554   S
    C62    C26       1.54575  1_655   S
    C60    C24       1.54575  1_655   S
    C58    C30       1.54538      .   S
    C56    C28       1.54539      .   S
    C10    C40       1.54538      .   S
    C14    C44       1.54538      .   S
    C12    C46       1.54529  1_545   S
    C8     C42       1.54528  1_545   S
    C34    C3        1.54541      .   S
    C38    C7        1.54541      .   S
    C36    C5        1.54531      .   S
    C32    C1        1.54529      .   S
    C20    C55       1.54527      .   S
    C16    C51       1.54544      .   S
    C22    C53       1.54557  1_565   S
    C18    C49       1.54558  1_565   S
    C63    C27       1.54563  1_655   S
    C61    C25       1.54575  1_655   S
    C59    C31       1.54541      .   S
    C57    C29       1.54540      .   S
    C11    C41       1.54542      .   S
    C15    C45       1.54539      .   S
    C9     C43       1.54529  1_545   S
    C13    C47       1.54529  1_545   S
