# CIF file generated by openbabel 2.4.90, see http://openbabel.sf.net
data_I
_chemical_name_common ''
_cell_length_a 17.2
_cell_length_b 18.534
_cell_length_c 18.532
_cell_angle_alpha 77.738
_cell_angle_beta 62.555
_cell_angle_gamma 62.555
_space_group_name_H-M_alt 'P 1'
_space_group_name_Hall 'P 1'
loop_
    _symmetry_equiv_pos_as_xyz
    x,y,z
loop_
    _atom_site_label
    _atom_site_type_symbol
    _atom_site_fract_x
    _atom_site_fract_y
    _atom_site_fract_z
    _atom_site_occupancy
    Zr0     Zr   0.43801   0.12448   0.12450   1.000
    Zr1     Zr   0.43802   0.12448   0.62451   1.000
    Zr2     Zr   0.43801   0.62448   0.12450   1.000
    Zr3     Zr   0.43802   0.62447   0.62450   1.000
    Zr4     Zr   0.93800   0.12448   0.12450   1.000
    Zr5     Zr   0.93800   0.12448   0.62451   1.000
    Zr6     Zr   0.93800   0.62448   0.12450   1.000
    Zr7     Zr   0.93801   0.62447   0.62450   1.000
    Zr8     Zr   0.06199   0.37552   0.37554   1.000
    Zr9     Zr   0.06200   0.37552   0.87555   1.000
    Zr10    Zr   0.06200   0.87552   0.37554   1.000
    Zr11    Zr   0.06201   0.87551   0.87555   1.000
    Zr12    Zr   0.56198   0.37552   0.37554   1.000
    Zr13    Zr   0.56199   0.37552   0.87555   1.000
    Zr14    Zr   0.56199   0.87552   0.37554   1.000
    Zr15    Zr   0.56200   0.87551   0.87555   1.000
    Zr16    Zr   0.31275   0.37474   0.37477   1.000
    Zr17    Zr   0.31276   0.37474   0.87477   1.000
    Zr18    Zr   0.31275   0.87474   0.37477   1.000
    Zr19    Zr   0.31276   0.87473   0.87470   1.000
    Zr20    Zr   0.81274   0.37474   0.37477   1.000
    Zr21    Zr   0.81275   0.37474   0.87470   1.000
    Zr22    Zr   0.81274   0.87474   0.37477   1.000
    Zr23    Zr   0.81275   0.87473   0.87477   1.000
    Zr24    Zr   0.18725   0.12526   0.12527   1.000
    Zr25    Zr   0.18726   0.12525   0.62528   1.000
    Zr26    Zr   0.18725   0.62526   0.12528   1.000
    Zr27    Zr   0.18727   0.62525   0.62528   1.000
    Zr28    Zr   0.68724   0.12526   0.12527   1.000
    Zr29    Zr   0.68725   0.12526   0.62528   1.000
    Zr30    Zr   0.68724   0.62526   0.12528   1.000
    Zr31    Zr   0.68726   0.62525   0.62528   1.000
    C32     C    0.75000   0.75000   0.50002   1.000
    C33     C    0.75000   0.25000   0.50002   1.000
    C34     C    0.75000   0.50000   0.50000   1.000
    C35     C    0.49999   0.75000   0.25002   1.000
    C36     C    0.74999   0.00000   0.25002   1.000
    C37     C    0.25000   0.00000   0.25002   1.000
    C38     C    0.99999   0.75000   0.25002   1.000
    C39     C    0.25001   0.50000   0.50002   1.000
    C40     C    0.75000   0.25000   0.00002   1.000
    C41     C    0.99999   0.25001   0.25002   1.000
    C42     C    0.25001   0.00000   0.00003   1.000
    C43     C    0.25001   0.25000   0.00000   1.000
    C44     C    0.75000   0.00000   0.50002   1.000
    C45     C    0.25000   0.00000   0.50002   1.000
    C46     C    0.25000   0.50000   0.00002   1.000
    C47     C    0.00001   0.74999   0.75002   1.000
    C48     C    0.00001   0.25000   0.75003   1.000
    C49     C    0.50001   0.74999   0.75003   1.000
    C50     C    0.50000   0.25000   0.25002   1.000
    C51     C    0.75000   0.74999   0.00002   1.000
    C52     C    0.75000   1.00000   0.00003   1.000
    C53     C    0.25001   0.25000   0.50002   1.000
    C54     C    0.74999   0.50000   0.00002   1.000
    C55     C    0.25001   0.75000   0.00000   1.000
    C56     C    0.25001   0.75000   0.50002   1.000
    C57     C    0.25000   0.50000   0.25002   1.000
    C58     C    0.50001   0.25000   0.75003   1.000
    C59     C    0.25001   0.49999   0.75002   1.000
    C60     C    0.75000   0.49999   0.75003   1.000
    C61     C    0.25001   0.99999   0.75003   1.000
    C62     C    0.75000   0.99999   0.75003   1.000
    C63     C    0.74999   0.50000   0.25002   1.000
    C64     C    0.95375   0.73310   0.23311   1.000
    O65     O    0.96908   0.73875   0.23876   1.000
    O66     O    0.89961   0.77920   0.27921   1.000
    O67     O    0.02725   0.69402   0.19404   1.000
    O68     O    0.96494   0.69382   0.19384   1.000
    C69     C    0.32959   0.98357   0.48361   1.000
    O70     O    0.30311   0.98906   0.48910   1.000
    O71     O    0.39683   0.94442   0.44445   1.000
    O72     O    0.33452   0.94422   0.44426   1.000
    O73     O    0.29144   0.02975   0.52978   1.000
    C74     C    0.32959   0.98357   0.98361   1.000
    O75     O    0.30312   0.98906   0.98910   1.000
    O76     O    0.39684   0.94441   0.94446   1.000
    O77     O    0.33453   0.94422   0.94425   1.000
    O78     O    0.29144   0.02975   0.02978   1.000
    C79     C    0.18711   0.76640   0.48310   1.000
    O80     O    0.20801   0.76091   0.48876   1.000
    O81     O    0.22158   0.80555   0.44383   1.000
    O82     O    0.15889   0.80574   0.44402   1.000
    O83     O    0.17891   0.72043   0.52941   1.000
    C84     C    0.32959   0.48357   0.48360   1.000
    O85     O    0.39683   0.44442   0.44445   1.000
    O86     O    0.33452   0.44422   0.44426   1.000
    O87     O    0.30311   0.48906   0.48909   1.000
    O88     O    0.29145   0.52974   0.52978   1.000
    C89     C    0.81289   0.23360   0.01694   1.000
    O90     O    0.84111   0.19426   0.05602   1.000
    O91     O    0.77842   0.19446   0.05621   1.000
    O92     O    0.82110   0.27956   0.97061   1.000
    O93     O    0.79199   0.23909   0.01129   1.000
    C94     C    0.54623   0.76691   0.26693   1.000
    O95     O    0.53090   0.76126   0.26128   1.000
    O96     O    0.47274   0.80599   0.30601   1.000
    O97     O    0.53505   0.80618   0.30620   1.000
    O98     O    0.60037   0.72081   0.22083   1.000
    C99     C    0.54625   0.26691   0.76694   1.000
    O100    O    0.60039   0.22081   0.72083   1.000
    O101    O    0.53092   0.26125   0.76129   1.000
    O102    O    0.47275   0.30598   0.80601   1.000
    O103    O    0.53506   0.30618   0.80621   1.000
    C104    C    0.68710   0.76640   0.48311   1.000
    O105    O    0.67890   0.72043   0.52942   1.000
    O106    O    0.65888   0.80574   0.44403   1.000
    O107    O    0.72157   0.80555   0.44383   1.000
    O108    O    0.70800   0.76091   0.48876   1.000
    C109    C    0.18712   0.48308   0.76642   1.000
    O110    O    0.15890   0.44400   0.80576   1.000
    O111    O    0.22159   0.44380   0.80557   1.000
    O112    O    0.17892   0.52939   0.72046   1.000
    O113    O    0.20802   0.48873   0.76094   1.000
    C114    C    0.18712   0.98307   0.76642   1.000
    O115    O    0.15891   0.94399   0.80576   1.000
    O116    O    0.22160   0.94380   0.80555   1.000
    O117    O    0.17892   0.02939   0.72046   1.000
    O118    O    0.20802   0.98873   0.76094   1.000
    C119    C    0.54625   0.76690   0.76694   1.000
    O120    O    0.47276   0.80598   0.80599   1.000
    O121    O    0.53507   0.80617   0.80621   1.000
    O122    O    0.60039   0.72080   0.72083   1.000
    O123    O    0.53092   0.76125   0.76129   1.000
    C124    C    0.18711   0.26640   0.48311   1.000
    O125    O    0.15889   0.30574   0.44402   1.000
    O126    O    0.22158   0.30555   0.44383   1.000
    O127    O    0.20801   0.26091   0.48876   1.000
    O128    O    0.17891   0.22044   0.52942   1.000
    C129    C    0.82958   0.48357   0.48359   1.000
    O130    O    0.80310   0.48906   0.48907   1.000
    O131    O    0.89682   0.44442   0.44444   1.000
    O132    O    0.83451   0.44423   0.44425   1.000
    O133    O    0.79144   0.52975   0.52977   1.000
    C134    C    0.31290   0.23360   0.51694   1.000
    O135    O    0.29200   0.23908   0.51129   1.000
    O136    O    0.32110   0.27956   0.47063   1.000
    O137    O    0.34112   0.19426   0.55602   1.000
    O138    O    0.27843   0.19445   0.55622   1.000
    C139    C    0.31291   0.73360   0.51694   1.000
    O140    O    0.32111   0.77956   0.47063   1.000
    O141    O    0.29201   0.73908   0.51128   1.000
    O142    O    0.27844   0.69445   0.55621   1.000
    O143    O    0.34113   0.69425   0.55602   1.000
    C144    C    0.81289   0.23360   0.51694   1.000
    O145    O    0.79199   0.23909   0.51129   1.000
    O146    O    0.82109   0.27956   0.47063   1.000
    O147    O    0.84111   0.19426   0.55602   1.000
    O148    O    0.77842   0.19445   0.55622   1.000
    C149    C    0.95375   0.23310   0.23311   1.000
    O150    O    0.89961   0.27920   0.27921   1.000
    O151    O    0.96494   0.19383   0.19384   1.000
    O152    O    0.02725   0.19402   0.19403   1.000
    O153    O    0.96908   0.23875   0.23876   1.000
    C154    C    0.04624   0.26691   0.26693   1.000
    O155    O    0.97274   0.30599   0.30600   1.000
    O156    O    0.03505   0.30618   0.30620   1.000
    O157    O    0.03091   0.26126   0.26128   1.000
    O158    O    0.10038   0.22081   0.22082   1.000
    C159    C    0.81289   0.01691   0.73364   1.000
    O160    O    0.82110   0.97060   0.77960   1.000
    O161    O    0.79199   0.01126   0.73912   1.000
    O162    O    0.84111   0.05600   0.69430   1.000
    O163    O    0.77842   0.05619   0.69449   1.000
    C164    C    0.68711   0.48308   0.76642   1.000
    O165    O    0.67891   0.52939   0.72045   1.000
    O166    O    0.65889   0.44400   0.80576   1.000
    O167    O    0.72158   0.44380   0.80555   1.000
    O168    O    0.70801   0.48873   0.76094   1.000
    C169    C    0.68712   0.98307   0.76642   1.000
    O170    O    0.67891   0.02939   0.72046   1.000
    O171    O    0.70801   0.98873   0.76094   1.000
    O172    O    0.65890   0.94399   0.80576   1.000
    O173    O    0.72159   0.94380   0.80557   1.000
    C174    C    0.81288   0.51692   0.23363   1.000
    O175    O    0.82109   0.47061   0.27959   1.000
    O176    O    0.79199   0.51127   0.23911   1.000
    O177    O    0.84110   0.55600   0.19429   1.000
    O178    O    0.77841   0.55620   0.19448   1.000
    C179    C    0.31291   0.51691   0.73363   1.000
    O180    O    0.32111   0.47060   0.77959   1.000
    O181    O    0.29201   0.51126   0.73912   1.000
    O182    O    0.34112   0.55599   0.69429   1.000
    O183    O    0.27843   0.55619   0.69448   1.000
    C184    C    0.81288   0.01692   0.23363   1.000
    O185    O    0.79198   0.01127   0.23911   1.000
    O186    O    0.84109   0.05600   0.19429   1.000
    O187    O    0.77841   0.05620   0.19448   1.000
    O188    O    0.82109   0.97061   0.27959   1.000
    C189    C    0.81290   0.51691   0.73363   1.000
    O190    O    0.84111   0.55599   0.69429   1.000
    O191    O    0.77842   0.55619   0.69448   1.000
    O192    O    0.82110   0.47060   0.77958   1.000
    O193    O    0.79200   0.51126   0.73912   1.000
    C194    C    0.31290   0.23360   0.01693   1.000
    O195    O    0.29200   0.23909   0.01126   1.000
    O196    O    0.32111   0.27956   0.97063   1.000
    O197    O    0.27843   0.19446   0.05621   1.000
    O198    O    0.34111   0.19426   0.05601   1.000
    C199    C    0.04624   0.76691   0.26680   1.000
    O200    O    0.03505   0.80618   0.30604   1.000
    O201    O    0.97274   0.80599   0.30584   1.000
    O202    O    0.10038   0.72081   0.22077   1.000
    O203    O    0.03091   0.76126   0.26121   1.000
    C204    C    0.81290   0.73360   0.51694   1.000
    O205    O    0.79200   0.73908   0.51128   1.000
    O206    O    0.82110   0.77956   0.47063   1.000
    O207    O    0.84111   0.69425   0.55602   1.000
    O208    O    0.77843   0.69445   0.55621   1.000
    C209    C    0.45376   0.23309   0.23309   1.000
    O210    O    0.46909   0.23875   0.23875   1.000
    O211    O    0.39962   0.27920   0.27920   1.000
    O212    O    0.52725   0.19402   0.19401   1.000
    O213    O    0.46494   0.19383   0.19382   1.000
    C214    C    0.54623   0.26691   0.26693   1.000
    O215    O    0.60037   0.22081   0.22082   1.000
    O216    O    0.47274   0.30598   0.30600   1.000
    O217    O    0.53505   0.30618   0.30620   1.000
    O218    O    0.53091   0.26126   0.26128   1.000
    C219    C    0.82958   0.48357   0.98361   1.000
    O220    O    0.89683   0.44442   0.94446   1.000
    O221    O    0.83451   0.44422   0.94424   1.000
    O222    O    0.80310   0.48906   0.98910   1.000
    O223    O    0.79143   0.52975   0.02978   1.000
    C224    C    0.31290   0.51692   0.23363   1.000
    O225    O    0.32110   0.47060   0.27959   1.000
    O226    O    0.29200   0.51126   0.23911   1.000
    O227    O    0.34111   0.55600   0.19429   1.000
    O228    O    0.27842   0.55620   0.19448   1.000
    C229    C    0.18711   0.48308   0.26642   1.000
    O230    O    0.20801   0.48874   0.26093   1.000
    O231    O    0.17890   0.52940   0.22046   1.000
    O232    O    0.15889   0.44400   0.30576   1.000
    O233    O    0.22158   0.44381   0.30557   1.000
    C234    C    0.67041   0.01643   0.51644   1.000
    O235    O    0.60317   0.05558   0.55559   1.000
    O236    O    0.66548   0.05578   0.55579   1.000
    O237    O    0.69689   0.01094   0.51095   1.000
    O238    O    0.70856   0.97026   0.47027   1.000
    C239    C    0.67041   0.51643   0.01644   1.000
    O240    O    0.60317   0.55558   0.05559   1.000
    O241    O    0.66548   0.55578   0.05579   1.000
    O242    O    0.69689   0.51094   0.01095   1.000
    O243    O    0.70856   0.47025   0.97025   1.000
    C244    C    0.45377   0.73308   0.73312   1.000
    O245    O    0.46910   0.73874   0.73877   1.000
    O246    O    0.52726   0.69401   0.69404   1.000
    O247    O    0.46496   0.69382   0.69385   1.000
    O248    O    0.39963   0.77919   0.77920   1.000
    C249    C    0.45377   0.23309   0.73310   1.000
    O250    O    0.46910   0.23874   0.73876   1.000
    O251    O    0.39963   0.27919   0.77921   1.000
    O252    O    0.46495   0.19382   0.69383   1.000
    O253    O    0.52726   0.19402   0.69402   1.000
    C254    C    0.17042   0.01643   0.51644   1.000
    O255    O    0.10318   0.05558   0.55559   1.000
    O256    O    0.16549   0.05578   0.55579   1.000
    O257    O    0.20857   0.97025   0.47027   1.000
    O258    O    0.19690   0.01094   0.51095   1.000
    C259    C    0.17042   0.51643   0.01644   1.000
    O260    O    0.10317   0.55558   0.05559   1.000
    O261    O    0.16549   0.55578   0.05579   1.000
    O262    O    0.20857   0.47025   0.97027   1.000
    O263    O    0.19690   0.51094   0.01095   1.000
    C264    C    0.18711   0.98308   0.26641   1.000
    O265    O    0.15890   0.94400   0.30575   1.000
    O266    O    0.22158   0.94381   0.30556   1.000
    O267    O    0.17890   0.02940   0.22045   1.000
    O268    O    0.20801   0.98874   0.26093   1.000
    C269    C    0.18711   0.26640   0.98311   1.000
    O270    O    0.20801   0.26091   0.98876   1.000
    O271    O    0.15890   0.30574   0.94403   1.000
    O272    O    0.22159   0.30555   0.94383   1.000
    O273    O    0.17890   0.22044   0.02941   1.000
    C274    C    0.68710   0.76639   0.98311   1.000
    O275    O    0.70801   0.76091   0.98876   1.000
    O276    O    0.65889   0.80574   0.94403   1.000
    O277    O    0.72158   0.80554   0.94383   1.000
    O278    O    0.67890   0.72044   0.02942   1.000
    C279    C    0.18711   0.76640   0.98311   1.000
    O280    O    0.15890   0.80574   0.94403   1.000
    O281    O    0.22159   0.80554   0.94382   1.000
    O282    O    0.17891   0.72044   0.02942   1.000
    O283    O    0.20801   0.76091   0.98876   1.000
    C284    C    0.04625   0.26691   0.76694   1.000
    O285    O    0.03506   0.30618   0.80621   1.000
    O286    O    0.97275   0.30598   0.80599   1.000
    O287    O    0.03092   0.26125   0.76129   1.000
    O288    O    0.10039   0.22080   0.72083   1.000
    C289    C    0.81290   0.73360   0.01693   1.000
    O290    O    0.82110   0.77955   0.97063   1.000
    O291    O    0.79200   0.73908   0.01128   1.000
    O292    O    0.84111   0.69426   0.05602   1.000
    O293    O    0.77842   0.69445   0.05621   1.000
    C294    C    0.17042   0.01643   0.01643   1.000
    O295    O    0.20857   0.97025   0.97025   1.000
    O296    O    0.19690   0.01094   0.01095   1.000
    O297    O    0.10317   0.05559   0.05559   1.000
    O298    O    0.16549   0.05578   0.05578   1.000
    C299    C    0.95377   0.23309   0.73312   1.000
    O300    O    0.89962   0.27919   0.77920   1.000
    O301    O    0.02726   0.19401   0.69404   1.000
    O302    O    0.96495   0.19382   0.69385   1.000
    O303    O    0.96909   0.23874   0.73877   1.000
    C304    C    0.31291   0.73360   0.01693   1.000
    O305    O    0.29200   0.73908   0.01126   1.000
    O306    O    0.34112   0.69426   0.05601   1.000
    O307    O    0.27843   0.69445   0.05621   1.000
    O308    O    0.32111   0.77955   0.97061   1.000
    C309    C    0.31290   0.01691   0.73364   1.000
    O310    O    0.34112   0.05600   0.69430   1.000
    O311    O    0.27843   0.05619   0.69449   1.000
    O312    O    0.32111   0.97060   0.77958   1.000
    O313    O    0.29200   0.01126   0.73912   1.000
    C314    C    0.31289   0.01692   0.23363   1.000
    O315    O    0.32110   0.97061   0.27959   1.000
    O316    O    0.29199   0.01127   0.23911   1.000
    O317    O    0.34110   0.05601   0.19429   1.000
    O318    O    0.27842   0.05620   0.19448   1.000
    C319    C    0.82958   0.98357   0.48361   1.000
    O320    O    0.79143   0.02975   0.52978   1.000
    O321    O    0.80310   0.98906   0.48910   1.000
    O322    O    0.89682   0.94442   0.44445   1.000
    O323    O    0.83451   0.94422   0.44426   1.000
    C324    C    0.67042   0.51643   0.51644   1.000
    O325    O    0.70856   0.47025   0.47027   1.000
    O326    O    0.69689   0.51094   0.51095   1.000
    O327    O    0.66548   0.55577   0.55579   1.000
    O328    O    0.60318   0.55558   0.55560   1.000
    C329    C    0.04625   0.76690   0.76694   1.000
    O330    O    0.10040   0.72080   0.72083   1.000
    O331    O    0.03507   0.80617   0.80621   1.000
    O332    O    0.97276   0.80597   0.80601   1.000
    O333    O    0.03093   0.76125   0.76128   1.000
    C334    C    0.68710   0.48309   0.26642   1.000
    O335    O    0.65888   0.44400   0.30576   1.000
    O336    O    0.72157   0.44381   0.30557   1.000
    O337    O    0.70799   0.48874   0.26093   1.000
    O338    O    0.67889   0.52940   0.22046   1.000
    C339    C    0.95377   0.73308   0.73311   1.000
    O340    O    0.96910   0.73874   0.73877   1.000
    O341    O    0.89963   0.77918   0.77922   1.000
    O342    O    0.96495   0.69381   0.69384   1.000
    O343    O    0.02727   0.69401   0.69404   1.000
    C344    C    0.68710   0.98308   0.26641   1.000
    O345    O    0.70800   0.98874   0.26093   1.000
    O346    O    0.67890   0.02940   0.22045   1.000
    O347    O    0.65889   0.94400   0.30575   1.000
    O348    O    0.72157   0.94381   0.30556   1.000
    C349    C    0.32959   0.48357   0.98361   1.000
    O350    O    0.30311   0.48906   0.98910   1.000
    O351    O    0.39683   0.44442   0.94446   1.000
    O352    O    0.33452   0.44422   0.94426   1.000
    O353    O    0.29144   0.52975   0.02978   1.000
    C354    C    0.82958   0.98356   0.98361   1.000
    O355    O    0.79143   0.02975   0.02978   1.000
    O356    O    0.80311   0.98905   0.98910   1.000
    O357    O    0.89683   0.94441   0.94446   1.000
    O358    O    0.83452   0.94422   0.94426   1.000
    C359    C    0.45376   0.73310   0.23309   1.000
    O360    O    0.39962   0.77920   0.27919   1.000
    O361    O    0.46494   0.69382   0.19383   1.000
    O362    O    0.52725   0.69402   0.19403   1.000
    O363    O    0.46909   0.73875   0.23875   1.000
    C364    C    0.67041   0.01643   0.01643   1.000
    O365    O    0.69689   0.01094   0.01095   1.000
    O366    O    0.70856   0.97025   0.97027   1.000
    O367    O    0.60317   0.05558   0.05559   1.000
    O368    O    0.66548   0.05578   0.05578   1.000
    C369    C    0.68710   0.26640   0.98311   1.000
    O370    O    0.70800   0.26091   0.98876   1.000
    O371    O    0.67890   0.22044   0.02941   1.000
    O372    O    0.65889   0.30574   0.94403   1.000
    O373    O    0.72158   0.30554   0.94382   1.000
    C374    C    0.17043   0.51643   0.51643   1.000
    O375    O    0.19690   0.51093   0.51094   1.000
    O376    O    0.10318   0.55558   0.55559   1.000
    O377    O    0.16550   0.55577   0.55578   1.000
    O378    O    0.20857   0.47025   0.47026   1.000
    C379    C    0.68710   0.26640   0.48310   1.000
    O380    O    0.65888   0.30574   0.44401   1.000
    O381    O    0.72157   0.30555   0.44382   1.000
    O382    O    0.67890   0.22044   0.52941   1.000
    O383    O    0.70800   0.26092   0.48876   1.000
loop_
    _geom_bond_atom_site_label_1
    _geom_bond_atom_site_label_2
    _geom_bond_distance
    _geom_bond_site_symmetry_2
    _ccdc_geom_bond_type
    C64    O65       0.38345      .   S
    C38    O65       0.76989      .   S
    C64    O66       1.08191      .   S
    Zr22   O66       2.22673      .   S
    C64    O67       1.08717  1_655   S
    Zr26   O67       2.24627      .   S
    C64    O68       1.03110      .   S
    Zr6    O68       2.30593      .   S
    C69    O70       0.38348      .   S
    C45    O70       0.76987  1_545   S
    C69    O71       1.03303      .   S
    Zr14   O71       2.30999      .   S
    C69    O72       1.08743      .   S
    Zr18   O72       2.24733      .   S
    C69    O73       1.08213  1_565   S
    Zr25   O73       2.22714      .   S
    C74    O75       0.38346      .   S
    C42    O75       0.76992  1_544   S
    C74    O76       1.03307      .   S
    Zr15   O76       2.31001      .   S
    C74    O77       1.08771      .   S
    Zr19   O77       2.24810      .   S
    C74    O78       1.08214  1_566   S
    Zr24   O78       2.22712      .   S
    C79    O80       0.38348      .   S
    C56    O80       0.76983      .   S
    C79    O81       1.08729      .   S
    Zr18   O81       2.24683      .   S
    C79    O82       1.03213      .   S
    Zr10   O82       2.30793      .   S
    C79    O83       1.08203      .   S
    Zr27   O83       2.22695      .   S
    C84    O85       1.03301      .   S
    Zr12   O85       2.30994      .   S
    C84    O86       1.08742      .   S
    Zr16   O86       2.24728      .   S
    C84    O87       0.38349      .   S
    C39    O87       0.76985      .   S
    C84    O88       1.08216      .   S
    Zr27   O88       2.22715      .   S
    C89    O90       1.03205      .   S
    Zr4    O90       2.30785      .   S
    C89    O91       1.08727      .   S
    Zr28   O91       2.24683      .   S
    C89    O92       1.08213  1_554   S
    Zr21   O92       2.22751      .   S
    C89    O93       0.38349      .   S
    C40    O93       0.76977      .   S
    C94    O95       0.38349      .   S
    C35    O95       0.76983      .   S
    C94    O96       1.08710      .   S
    Zr18   O96       2.24619      .   S
    C94    O97       1.03108      .   S
    Zr14   O97       2.30578      .   S
    C94    O98       1.08186      .   S
    Zr30   O98       2.22669      .   S
    C99    O100      1.08190      .   S
    Zr29   O100      2.22675      .   S
    C99    O101      0.38347      .   S
    C58    O101      0.76981      .   S
    C99    O102      1.08710      .   S
    Zr17   O102      2.24619      .   S
    C99    O103      1.03110      .   S
    Zr13   O103      2.30579      .   S
    C104   O105      1.08202      .   S
    Zr31   O105      2.22692      .   S
    C104   O106      1.03212      .   S
    Zr14   O106      2.30798      .   S
    C104   O107      1.08729      .   S
    Zr22   O107      2.24684      .   S
    C104   O108      0.38346      .   S
    C32    O108      0.76981      .   S
    C109   O110      1.03215      .   S
    Zr9    O110      2.30799      .   S
    C109   O111      1.08731      .   S
    Zr17   O111      2.24679      .   S
    C109   O112      1.08201      .   S
    Zr27   O112      2.22689      .   S
    C109   O113      0.38347      .   S
    C59    O113      0.76982      .   S
    C114   O115      1.03216      .   S
    Zr11   O115      2.30802      .   S
    C114   O116      1.08705      .   S
    Zr19   O116      2.24608      .   S
    C114   O117      1.08203  1_565   S
    Zr25   O117      2.22693      .   S
    C114   O118      0.38349      .   S
    C61    O118      0.76981      .   S
    C119   O120      1.08701      .   S
    Zr19   O120      2.24606      .   S
    C119   O121      1.03111      .   S
    Zr15   O121      2.30582      .   S
    C119   O122      1.08190      .   S
    Zr31   O122      2.22674      .   S
    C119   O123      0.38347      .   S
    C49    O123      0.76981      .   S
    C124   O125      1.03217      .   S
    Zr8    O125      2.30799      .   S
    C124   O126      1.08730      .   S
    Zr16   O126      2.24684      .   S
    C124   O127      0.38348      .   S
    C53    O127      0.76980      .   S
    C124   O128      1.08202      .   S
    Zr25   O128      2.22687      .   S
    C129   O130      0.38352      .   S
    C34    O130      0.76984      .   S
    C129   O131      1.03301      .   S
    Zr8    O131      2.31013  1_455   S
    C129   O132      1.08733      .   S
    Zr20   O132      2.24717      .   S
    C129   O133      1.08224      .   S
    Zr31   O133      2.22722      .   S
    C134   O135      0.38348      .   S
    C53    O135      0.76980      .   S
    C134   O136      1.08201      .   S
    Zr16   O136      2.22687      .   S
    C134   O137      1.03216      .   S
    Zr1    O137      2.30796      .   S
    C134   O138      1.08730      .   S
    Zr25   O138      2.24685      .   S
    C139   O140      1.08201      .   S
    Zr18   O140      2.22689      .   S
    C139   O141      0.38348      .   S
    C56    O141      0.76983      .   S
    C139   O142      1.08730      .   S
    Zr27   O142      2.24686      .   S
    C139   O143      1.03213      .   S
    Zr3    O143      2.30794      .   S
    C144   O145      0.38348      .   S
    C33    O145      0.76981      .   S
    C144   O146      1.08202      .   S
    Zr20   O146      2.22689      .   S
    C144   O147      1.03216      .   S
    Zr5    O147      2.30795      .   S
    C144   O148      1.08730      .   S
    Zr29   O148      2.24684      .   S
    C149   O150      1.08189      .   S
    Zr20   O150      2.22677      .   S
    C149   O151      1.03108      .   S
    Zr4    O151      2.30594      .   S
    C149   O152      1.08717  1_655   S
    Zr24   O152      2.24628      .   S
    C149   O153      0.38348      .   S
    C41    O153      0.76991      .   S
    C154   O155      1.08717  1_455   S
    Zr20   O155      2.24628      .   S
    C154   O156      1.03108      .   S
    Zr8    O156      2.30589      .   S
    C154   O157      0.38346      .   S
    C41    O157      0.76989  1_655   S
    C154   O158      1.08191      .   S
    Zr24   O158      2.22674      .   S
    C159   O160      1.08201  1_545   S
    Zr23   O160      2.22689      .   S
    C159   O161      0.38348      .   S
    C62    O161      0.76980  1_565   S
    C159   O162      1.03216      .   S
    Zr5    O162      2.30803      .   S
    C159   O163      1.08733      .   S
    Zr29   O163      2.24692      .   S
    C164   O165      1.08205      .   S
    Zr31   O165      2.22687      .   S
    C164   O166      1.03216      .   S
    Zr13   O166      2.30801      .   S
    C164   O167      1.08706      .   S
    Zr21   O167      2.24605      .   S
    C164   O168      0.38349      .   S
    C60    O168      0.76984      .   S
    C169   O170      1.08204  1_565   S
    Zr29   O170      2.22694      .   S
    C169   O171      0.38349      .   S
    C62    O171      0.76981      .   S
    C169   O172      1.03216      .   S
    Zr15   O172      2.30804      .   S
    C169   O173      1.08730      .   S
    Zr23   O173      2.24684      .   S
    C174   O175      1.08202      .   S
    Zr20   O175      2.22693      .   S
    C174   O176      0.38348      .   S
    C63    O176      0.76982      .   S
    C174   O177      1.03214      .   S
    Zr6    O177      2.30800      .   S
    C174   O178      1.08727      .   S
    Zr30   O178      2.24681      .   S
    C179   O180      1.08200      .   S
    Zr17   O180      2.22686      .   S
    C179   O181      0.38348      .   S
    C59    O181      0.76983      .   S
    C179   O182      1.03217      .   S
    Zr3    O182      2.30802      .   S
    C179   O183      1.08731      .   S
    Zr27   O183      2.24685      .   S
    C184   O185      0.38349      .   S
    C36    O185      0.76981      .   S
    C184   O186      1.03216      .   S
    Zr4    O186      2.30802      .   S
    C184   O187      1.08733      .   S
    Zr28   O187      2.24691      .   S
    C184   O188      1.08203  1_545   S
    Zr22   O188      2.22689      .   S
    C189   O190      1.03216      .   S
    Zr7    O190      2.30801      .   S
    C189   O191      1.08731      .   S
    Zr31   O191      2.24685      .   S
    C189   O192      1.08179      .   S
    Zr21   O192      2.22630      .   S
    C189   O193      0.38347      .   S
    C60    O193      0.76982      .   S
    C194   O195      0.38359      .   S
    C43    O195      0.76975      .   S
    C194   O196      1.08188  1_554   S
    Zr17   O196      2.22677      .   S
    C194   O197      1.08731      .   S
    Zr24   O197      2.24685      .   S
    C194   O198      1.03215      .   S
    Zr0    O198      2.30797      .   S
    C199   O200      1.03060      .   S
    Zr10   O200      2.30820      .   S
    C199   O201      1.08700  1_455   S
    Zr22   O201      2.24665      .   S
    C199   O202      1.08119      .   S
    Zr26   O202      2.22590      .   S
    C199   O203      0.38270      .   S
    C38    O203      0.76914  1_655   S
    C204   O205      0.38348      .   S
    C32    O205      0.76983      .   S
    C204   O206      1.08201      .   S
    Zr22   O206      2.22689      .   S
    C204   O207      1.03213      .   S
    Zr7    O207      2.30795      .   S
    C204   O208      1.08730      .   S
    Zr31   O208      2.24686      .   S
    C209   O210      0.38358      .   S
    C50    O210      0.76993      .   S
    C209   O211      1.08197      .   S
    Zr16   O211      2.22686      .   S
    C209   O212      1.08712      .   S
    Zr28   O212      2.24615      .   S
    C209   O213      1.03115      .   S
    Zr0    O213      2.30553      .   S
    C214   O215      1.08190      .   S
    Zr28   O215      2.22673      .   S
    C214   O216      1.08710      .   S
    Zr16   O216      2.24619      .   S
    C214   O217      1.03110      .   S
    Zr12   O217      2.30580      .   S
    C214   O218      0.38347      .   S
    C50    O218      0.76981      .   S
    C219   O220      1.03308      .   S
    Zr9    O220      2.31017  1_455   S
    C219   O221      1.08770      .   S
    Zr21   O221      2.24808      .   S
    C219   O222      0.38347      .   S
    C54    O222      0.76989  1_554   S
    C219   O223      1.08217  1_556   S
    Zr30   O223      2.22718      .   S
    C224   O225      1.08203      .   S
    Zr16   O225      2.22694      .   S
    C224   O226      0.38348      .   S
    C57    O226      0.76982      .   S
    C224   O227      1.03214      .   S
    Zr2    O227      2.30801      .   S
    C224   O228      1.08728      .   S
    Zr26   O228      2.24682      .   S
    C229   O230      0.38347      .   S
    C57    O230      0.76981      .   S
    C229   O231      1.08201      .   S
    Zr26   O231      2.22691      .   S
    C229   O232      1.03214      .   S
    Zr8    O232      2.30799      .   S
    C229   O233      1.08732      .   S
    Zr16   O233      2.24688      .   S
    C234   O235      1.03302      .   S
    Zr1    O235      2.30995      .   S
    C234   O236      1.08743      .   S
    Zr29   O236      2.24733      .   S
    C234   O237      0.38348      .   S
    C44    O237      0.76987      .   S
    C234   O238      1.08214  1_545   S
    Zr22   O238      2.22717      .   S
    C239   O240      1.03303      .   S
    Zr2    O240      2.30995      .   S
    C239   O241      1.08745      .   S
    Zr30   O241      2.24733      .   S
    C239   O242      0.38347      .   S
    C54    O242      0.76989      .   S
    C239   O243      1.08240  1_554   S
    Zr21   O243      2.22777      .   S
    C244   O245      0.38349      .   S
    C49    O245      0.76984      .   S
    C244   O246      1.08710      .   S
    Zr31   O246      2.24619      .   S
    C244   O247      1.03112      .   S
    Zr3    O247      2.30590      .   S
    C244   O248      1.08168      .   S
    Zr19   O248      2.22605      .   S
    C249   O250      0.38361      .   S
    C58    O250      0.76995      .   S
    C249   O251      1.08196      .   S
    Zr17   O251      2.22679      .   S
    C249   O252      1.03117      .   S
    Zr1    O252      2.30548      .   S
    C249   O253      1.08713      .   S
    Zr29   O253      2.24613      .   S
    C254   O255      1.03307      .   S
    Zr5    O255      2.31015  1_655   S
    C254   O256      1.08743      .   S
    Zr25   O256      2.24733      .   S
    C254   O257      1.08214  1_545   S
    Zr18   O257      2.22715      .   S
    C254   O258      0.38348      .   S
    C45    O258      0.76987      .   S
    C259   O260      1.03307      .   S
    Zr6    O260      2.31014  1_655   S
    C259   O261      1.08744      .   S
    Zr26   O261      2.24733      .   S
    C259   O262      1.08217  1_554   S
    Zr17   O262      2.22719      .   S
    C259   O263      0.38347      .   S
    C46    O263      0.76989      .   S
    C264   O265      1.03217      .   S
    Zr10   O265      2.30804      .   S
    C264   O266      1.08734      .   S
    Zr18   O266      2.24687      .   S
    C264   O267      1.08205  1_565   S
    Zr24   O267      2.22695      .   S
    C264   O268      0.38348      .   S
    C37    O268      0.76979  1_545   S
    C269   O270      0.38343      .   S
    C43    O270      0.76959  1_554   S
    C269   O271      1.03207      .   S
    Zr9    O271      2.30788      .   S
    C269   O272      1.08729      .   S
    Zr17   O272      2.24685      .   S
    C269   O273      1.08192  1_556   S
    Zr24   O273      2.22677      .   S
    C274   O275      0.38347      .   S
    C51    O275      0.76972  1_554   S
    C274   O276      1.03206      .   S
    Zr15   O276      2.30787      .   S
    C274   O277      1.08728      .   S
    Zr23   O277      2.24684      .   S
    C274   O278      1.08194  1_556   S
    Zr30   O278      2.22682      .   S
    C279   O280      1.03205      .   S
    Zr11   O280      2.30783      .   S
    C279   O281      1.08737      .   S
    Zr19   O281      2.24698      .   S
    C279   O282      1.08194  1_556   S
    Zr26   O282      2.22683      .   S
    C279   O283      0.38343      .   S
    C55    O283      0.76959  1_554   S
    C284   O285      1.03110      .   S
    Zr9    O285      2.30591      .   S
    C284   O286      1.08708  1_455   S
    Zr21   O286      2.24616      .   S
    C284   O287      0.38346      .   S
    C48    O287      0.76989      .   S
    C284   O288      1.08191      .   S
    Zr25   O288      2.22675      .   S
    C289   O290      1.08193  1_554   S
    Zr23   O290      2.22680      .   S
    C289   O291      0.38349      .   S
    C51    O291      0.76974      .   S
    C289   O292      1.03208      .   S
    Zr6    O292      2.30789      .   S
    C289   O293      1.08729      .   S
    Zr30   O293      2.24686      .   S
    C294   O295      1.08239  1_544   S
    Zr19   O295      2.22778      .   S
    C294   O296      0.38347      .   S
    C42    O296      0.76993      .   S
    C294   O297      1.03309      .   S
    Zr4    O297      2.31018  1_655   S
    C294   O298      1.08741      .   S
    Zr24   O298      2.24729      .   S
    C299   O300      1.08168      .   S
    Zr21   O300      2.22603      .   S
    C299   O301      1.08717  1_655   S
    Zr25   O301      2.24627      .   S
    C299   O302      1.03107      .   S
    Zr5    O302      2.30592      .   S
    C299   O303      0.38347      .   S
    C48    O303      0.76991  1_455   S
    C304   O305      0.38358      .   S
    C55    O305      0.76974      .   S
    C304   O306      1.03214      .   S
    Zr2    O306      2.30797      .   S
    C304   O307      1.08731      .   S
    Zr26   O307      2.24687      .   S
    C304   O308      1.08206  1_554   S
    Zr19   O308      2.22742      .   S
    C309   O310      1.03216      .   S
    Zr1    O310      2.30804      .   S
    C309   O311      1.08732      .   S
    Zr25   O311      2.24691      .   S
    C309   O312      1.08178  1_545   S
    Zr19   O312      2.22631      .   S
    C309   O313      0.38348      .   S
    C61    O313      0.76980  1_565   S
    C314   O315      1.08204  1_545   S
    Zr18   O315      2.22691      .   S
    C314   O316      0.38349      .   S
    C37    O316      0.76981      .   S
    C314   O317      1.03216      .   S
    Zr0    O317      2.30802      .   S
    C314   O318      1.08733      .   S
    Zr24   O318      2.24691      .   S
    C319   O320      1.08213  1_565   S
    Zr29   O320      2.22714      .   S
    C319   O321      0.38348      .   S
    C44    O321      0.76987  1_545   S
    C319   O322      1.03307      .   S
    Zr10   O322      2.31018  1_455   S
    C319   O323      1.08743      .   S
    Zr22   O323      2.24734      .   S
    C324   O325      1.08214      .   S
    Zr20   O325      2.22713      .   S
    C324   O326      0.38345      .   S
    C34    O326      0.76977      .   S
    C324   O327      1.08745      .   S
    Zr31   O327      2.24729      .   S
    C324   O328      1.03300      .   S
    Zr3    O328      2.30990      .   S
    C329   O330      1.08188      .   S
    Zr27   O330      2.22671      .   S
    C329   O331      1.03112      .   S
    Zr11   O331      2.30593      .   S
    C329   O332      1.08717  1_455   S
    Zr23   O332      2.24627      .   S
    C329   O333      0.38348      .   S
    C47    O333      0.76989      .   S
    C334   O335      1.03215      .   S
    Zr12   O335      2.30801      .   S
    C334   O336      1.08731      .   S
    Zr20   O336      2.24687      .   S
    C334   O337      0.38348      .   S
    C63    O337      0.76982      .   S
    C334   O338      1.08200      .   S
    Zr30   O338      2.22690      .   S
    C339   O340      0.38348      .   S
    C47    O340      0.76988  1_455   S
    C339   O341      1.08188      .   S
    Zr23   O341      2.22670      .   S
    C339   O342      1.03112      .   S
    Zr7    O342      2.30596      .   S
    C339   O343      1.08717  1_655   S
    Zr27   O343      2.24626      .   S
    C344   O345      0.38348      .   S
    C36    O345      0.76980  1_545   S
    C344   O346      1.08205  1_565   S
    Zr28   O346      2.22695      .   S
    C344   O347      1.03216      .   S
    Zr14   O347      2.30802      .   S
    C344   O348      1.08733      .   S
    Zr22   O348      2.24686      .   S
    C349   O350      0.38348      .   S
    C46    O350      0.76989  1_554   S
    C349   O351      1.03304      .   S
    Zr13   O351      2.30998      .   S
    C349   O352      1.08744      .   S
    Zr17   O352      2.24733      .   S
    C349   O353      1.08216  1_556   S
    Zr26   O353      2.22717      .   S
    C354   O355      1.08214  1_566   S
    Zr28   O355      2.22712      .   S
    C354   O356      0.38347      .   S
    C52    O356      0.76992  1_554   S
    C354   O357      1.03311      .   S
    Zr11   O357      2.31020  1_455   S
    C354   O358      1.08745      .   S
    Zr23   O358      2.24734      .   S
    C359   O360      1.08183      .   S
    Zr18   O360      2.22708      .   S
    C359   O361      1.03096      .   S
    Zr2    O361      2.30569      .   S
    C359   O362      1.08704      .   S
    Zr30   O362      2.24615      .   S
    C359   O363      0.38360      .   S
    C35    O363      0.76994      .   S
    C364   O365      0.38347      .   S
    C52    O365      0.76992  1_565   S
    C364   O366      1.08216  1_544   S
    Zr23   O366      2.22720      .   S
    C364   O367      1.03305      .   S
    Zr0    O367      2.31000      .   S
    C364   O368      1.08741      .   S
    Zr28   O368      2.24729      .   S
    C369   O370      0.38349      .   S
    C40    O370      0.76977  1_554   S
    C369   O371      1.08193  1_556   S
    Zr28   O371      2.22677      .   S
    C369   O372      1.03207      .   S
    Zr13   O372      2.30790      .   S
    C369   O373      1.08737      .   S
    Zr21   O373      2.24697      .   S
    C374   O375      0.38350      .   S
    C39    O375      0.76985      .   S
    C374   O376      1.03307      .   S
    Zr7    O376      2.31012  1_655   S
    C374   O377      1.08752      .   S
    Zr27   O377      2.24743      .   S
    C374   O378      1.08216      .   S
    Zr16   O378      2.22699      .   S
    C379   O380      1.03222      .   S
    Zr12   O380      2.30774      .   S
    C379   O381      1.08732      .   S
    Zr20   O381      2.24681      .   S
    C379   O382      1.08209      .   S
    Zr29   O382      2.22695      .   S
    C379   O383      0.38356      .   S
    C33    O383      0.76989      .   S
