# CIF file generated by openbabel 2.4.90, see http://openbabel.sf.net
data_I
_chemical_name_common ''
_cell_length_a 17.2
_cell_length_b 18.534
_cell_length_c 18.532
_cell_angle_alpha 77.738
_cell_angle_beta 62.555
_cell_angle_gamma 62.555
_space_group_name_H-M_alt 'P 1'
_space_group_name_Hall 'P 1'
loop_
    _symmetry_equiv_pos_as_xyz
    x,y,z
loop_
    _atom_site_label
    _atom_site_type_symbol
    _atom_site_fract_x
    _atom_site_fract_y
    _atom_site_fract_z
    _atom_site_occupancy
    Zr0     Zr   0.43801   0.12448   0.12450   1.000
    Zr1     Zr   0.43802   0.12448   0.62451   1.000
    Zr2     Zr   0.43801   0.62448   0.12450   1.000
    Zr3     Zr   0.43802   0.62447   0.62450   1.000
    Zr4     Zr   0.93800   0.12448   0.12450   1.000
    Zr5     Zr   0.93800   0.12448   0.62451   1.000
    Zr6     Zr   0.93800   0.62448   0.12450   1.000
    Zr7     Zr   0.93801   0.62447   0.62450   1.000
    Zr8     Zr   0.06199   0.37552   0.37554   1.000
    Zr9     Zr   0.06200   0.37552   0.87555   1.000
    Zr10    Zr   0.06200   0.87552   0.37554   1.000
    Zr11    Zr   0.06201   0.87551   0.87555   1.000
    Zr12    Zr   0.56198   0.37552   0.37554   1.000
    Zr13    Zr   0.56199   0.37552   0.87555   1.000
    Zr14    Zr   0.56199   0.87552   0.37554   1.000
    Zr15    Zr   0.56200   0.87551   0.87555   1.000
    Zr16    Zr   0.31275   0.37474   0.37477   1.000
    Zr17    Zr   0.31276   0.37474   0.87477   1.000
    Zr18    Zr   0.31275   0.87474   0.37477   1.000
    Zr19    Zr   0.31276   0.87473   0.87470   1.000
    Zr20    Zr   0.81274   0.37474   0.37477   1.000
    Zr21    Zr   0.81275   0.37474   0.87470   1.000
    Zr22    Zr   0.81274   0.87474   0.37477   1.000
    Zr23    Zr   0.81275   0.87473   0.87477   1.000
    Zr24    Zr   0.18725   0.12526   0.12527   1.000
    Zr25    Zr   0.18726   0.12525   0.62528   1.000
    Zr26    Zr   0.18725   0.62526   0.12528   1.000
    Zr27    Zr   0.18727   0.62525   0.62528   1.000
    Zr28    Zr   0.68724   0.12526   0.12527   1.000
    Zr29    Zr   0.68725   0.12526   0.62528   1.000
    Zr30    Zr   0.68724   0.62526   0.12528   1.000
    Zr31    Zr   0.68726   0.62525   0.62528   1.000
    Zr32    Zr   0.29219   0.23915   0.01120   1.000
    Zr33    Zr   0.29220   0.23914   0.51124   1.000
    Zr34    Zr   0.29220   0.73914   0.01120   1.000
    Zr35    Zr   0.29220   0.73914   0.51124   1.000
    Zr36    Zr   0.79218   0.23914   0.01124   1.000
    Zr37    Zr   0.79219   0.23914   0.51124   1.000
    Zr38    Zr   0.79219   0.73914   0.01123   1.000
    Zr39    Zr   0.79219   0.73914   0.51124   1.000
    Zr40    Zr   0.29218   0.01123   0.23917   1.000
    Zr41    Zr   0.29219   0.01122   0.73918   1.000
    Zr42    Zr   0.29219   0.51122   0.23916   1.000
    Zr43    Zr   0.29221   0.51121   0.73917   1.000
    Zr44    Zr   0.79217   0.01123   0.23917   1.000
    Zr45    Zr   0.79219   0.01122   0.73918   1.000
    Zr46    Zr   0.79218   0.51122   0.23916   1.000
    Zr47    Zr   0.79220   0.51121   0.73917   1.000
    Zr48    Zr   0.30326   0.48910   0.48914   1.000
    Zr49    Zr   0.30327   0.48910   0.98915   1.000
    Zr50    Zr   0.30327   0.98910   0.48915   1.000
    Zr51    Zr   0.30328   0.98909   0.98916   1.000
    Zr52    Zr   0.80325   0.48911   0.48910   1.000
    Zr53    Zr   0.80326   0.48910   0.98915   1.000
    Zr54    Zr   0.80326   0.98910   0.48915   1.000
    Zr55    Zr   0.80327   0.98909   0.98916   1.000
    Zr56    Zr   0.03117   0.26121   0.26123   1.000
    Zr57    Zr   0.03118   0.26120   0.76124   1.000
    Zr58    Zr   0.03117   0.76120   0.26123   1.000
    Zr59    Zr   0.03119   0.76119   0.76123   1.000
    Zr60    Zr   0.53116   0.26120   0.26123   1.000
    Zr61    Zr   0.53117   0.26120   0.76124   1.000
    Zr62    Zr   0.53116   0.76120   0.26123   1.000
    Zr63    Zr   0.53117   0.76119   0.76124   1.000
    Zr64    Zr   0.20781   0.26086   0.48881   1.000
    Zr65    Zr   0.20782   0.26086   0.98881   1.000
    Zr66    Zr   0.20782   0.76086   0.48880   1.000
    Zr67    Zr   0.20782   0.76085   0.98881   1.000
    Zr68    Zr   0.70780   0.26086   0.48881   1.000
    Zr69    Zr   0.70781   0.26085   0.98881   1.000
    Zr70    Zr   0.70781   0.76086   0.48880   1.000
    Zr71    Zr   0.70782   0.76085   0.98881   1.000
    Zr72    Zr   0.20781   0.48878   0.26088   1.000
    Zr73    Zr   0.20782   0.48878   0.76088   1.000
    Zr74    Zr   0.20782   0.98878   0.26087   1.000
    Zr75    Zr   0.20783   0.98877   0.76088   1.000
    Zr76    Zr   0.70780   0.48879   0.26088   1.000
    Zr77    Zr   0.70781   0.48878   0.76089   1.000
    Zr78    Zr   0.70781   0.98878   0.26087   1.000
    Zr79    Zr   0.70782   0.98877   0.76088   1.000
    Zr80    Zr   0.19674   0.01091   0.01089   1.000
    Zr81    Zr   0.19674   0.01090   0.51090   1.000
    Zr82    Zr   0.19674   0.51090   0.01090   1.000
    Zr83    Zr   0.19675   0.51089   0.51090   1.000
    Zr84    Zr   0.69673   0.01090   0.01089   1.000
    Zr85    Zr   0.69673   0.01090   0.51090   1.000
    Zr86    Zr   0.69673   0.51090   0.01090   1.000
    Zr87    Zr   0.69674   0.51089   0.51090   1.000
    Zr88    Zr   0.46883   0.23880   0.23881   1.000
    Zr89    Zr   0.46885   0.23880   0.73882   1.000
    Zr90    Zr   0.46883   0.73880   0.23881   1.000
    Zr91    Zr   0.46885   0.73879   0.73882   1.000
    Zr92    Zr   0.96882   0.23880   0.23881   1.000
    Zr93    Zr   0.96883   0.23880   0.73882   1.000
    Zr94    Zr   0.96882   0.73880   0.23881   1.000
    Zr95    Zr   0.96884   0.73879   0.73882   1.000
    Zr96    Zr   0.34586   0.27631   0.47387   1.000
    Zr97    Zr   0.34587   0.27630   0.97388   1.000
    Zr98    Zr   0.34586   0.77631   0.47387   1.000
    Zr99    Zr   0.34587   0.77629   0.97388   1.000
    Zr100   Zr   0.84585   0.27631   0.47387   1.000
    Zr101   Zr   0.84586   0.27630   0.97388   1.000
    Zr102   Zr   0.84585   0.77631   0.47387   1.000
    Zr103   Zr   0.84586   0.77629   0.97387   1.000
    Zr104   Zr   0.30065   0.18536   0.06570   1.000
    Zr105   Zr   0.30066   0.18535   0.56571   1.000
    Zr106   Zr   0.30065   0.68536   0.06570   1.000
    Zr107   Zr   0.30066   0.68535   0.56570   1.000
    Zr108   Zr   0.80064   0.18536   0.06570   1.000
    Zr109   Zr   0.80065   0.18535   0.56571   1.000
    Zr110   Zr   0.80064   0.68536   0.06570   1.000
    Zr111   Zr   0.80065   0.68535   0.56570   1.000
    Zr112   Zr   0.34586   0.47384   0.27633   1.000
    Zr113   Zr   0.34587   0.47384   0.77634   1.000
    Zr114   Zr   0.34585   0.97385   0.27634   1.000
    Zr115   Zr   0.34587   0.97384   0.77634   1.000
    Zr116   Zr   0.84584   0.47385   0.27633   1.000
    Zr117   Zr   0.84586   0.47384   0.77634   1.000
    Zr118   Zr   0.84585   0.97385   0.27634   1.000
    Zr119   Zr   0.84586   0.97384   0.77634   1.000
    Zr120   Zr   0.30063   0.06570   0.18539   1.000
    Zr121   Zr   0.30064   0.06569   0.68540   1.000
    Zr122   Zr   0.30064   0.56569   0.18539   1.000
    Zr123   Zr   0.30065   0.56568   0.68539   1.000
    Zr124   Zr   0.80062   0.06569   0.18539   1.000
    Zr125   Zr   0.80063   0.06569   0.68540   1.000
    Zr126   Zr   0.80062   0.56569   0.18539   1.000
    Zr127   Zr   0.80064   0.56568   0.68539   1.000
    Zr128   Zr   0.31933   0.02660   0.02662   1.000
    Zr129   Zr   0.31934   0.02659   0.52662   1.000
    Zr130   Zr   0.31933   0.52660   0.02662   1.000
    Zr131   Zr   0.31935   0.52659   0.52662   1.000
    Zr132   Zr   0.81932   0.02660   0.02662   1.000
    Zr133   Zr   0.81933   0.02659   0.52662   1.000
    Zr134   Zr   0.81932   0.52660   0.02662   1.000
    Zr135   Zr   0.81934   0.52659   0.52662   1.000
    Zr136   Zr   0.36616   0.43501   0.43505   1.000
    Zr137   Zr   0.36616   0.43501   0.93506   1.000
    Zr138   Zr   0.36616   0.93501   0.43506   1.000
    Zr139   Zr   0.36617   0.93500   0.93506   1.000
    Zr140   Zr   0.86614   0.43502   0.43505   1.000
    Zr141   Zr   0.86615   0.43501   0.93506   1.000
    Zr142   Zr   0.86614   0.93501   0.43506   1.000
    Zr143   Zr   0.86616   0.93500   0.93506   1.000
    Zr144   Zr   0.12180   0.22416   0.22417   1.000
    Zr145   Zr   0.12181   0.22415   0.72418   1.000
    Zr146   Zr   0.12180   0.72415   0.22418   1.000
    Zr147   Zr   0.12181   0.72414   0.72418   1.000
    Zr148   Zr   0.62179   0.22415   0.22417   1.000
    Zr149   Zr   0.62180   0.22415   0.72418   1.000
    Zr150   Zr   0.62178   0.72415   0.22418   1.000
    Zr151   Zr   0.62180   0.72414   0.72418   1.000
    Zr152   Zr   0.48576   0.31537   0.31539   1.000
    Zr153   Zr   0.48577   0.31537   0.81540   1.000
    Zr154   Zr   0.48575   0.81538   0.31539   1.000
    Zr155   Zr   0.48577   0.81536   0.81540   1.000
    Zr156   Zr   0.98574   0.31538   0.31539   1.000
    Zr157   Zr   0.98576   0.31537   0.81540   1.000
    Zr158   Zr   0.98574   0.81538   0.31500   1.000
    Zr159   Zr   0.98576   0.81536   0.81540   1.000
    Zr160   Zr   0.15415   0.22370   0.02617   1.000
    Zr161   Zr   0.15415   0.22369   0.52618   1.000
    Zr162   Zr   0.15415   0.72369   0.02617   1.000
    Zr163   Zr   0.15416   0.72368   0.52617   1.000
    Zr164   Zr   0.65414   0.22370   0.02617   1.000
    Zr165   Zr   0.65415   0.22369   0.52618   1.000
    Zr166   Zr   0.65414   0.72369   0.02617   1.000
    Zr167   Zr   0.65415   0.72368   0.52617   1.000
    Zr168   Zr   0.19936   0.31465   0.43434   1.000
    Zr169   Zr   0.19936   0.31464   0.93435   1.000
    Zr170   Zr   0.19936   0.81465   0.43434   1.000
    Zr171   Zr   0.19937   0.81464   0.93435   1.000
    Zr172   Zr   0.69934   0.31465   0.43430   1.000
    Zr173   Zr   0.69935   0.31464   0.93435   1.000
    Zr174   Zr   0.69934   0.81465   0.43435   1.000
    Zr175   Zr   0.69936   0.81464   0.93435   1.000
    Zr176   Zr   0.15415   0.02616   0.22370   1.000
    Zr177   Zr   0.15416   0.02615   0.72371   1.000
    Zr178   Zr   0.15415   0.52616   0.22371   1.000
    Zr179   Zr   0.15416   0.52615   0.72371   1.000
    Zr180   Zr   0.65414   0.02615   0.22370   1.000
    Zr181   Zr   0.65415   0.02615   0.72371   1.000
    Zr182   Zr   0.65414   0.52616   0.22371   1.000
    Zr183   Zr   0.65415   0.52615   0.72370   1.000
    Zr184   Zr   0.19936   0.43431   0.31466   1.000
    Zr185   Zr   0.19937   0.43431   0.81467   1.000
    Zr186   Zr   0.19937   0.93431   0.31466   1.000
    Zr187   Zr   0.19938   0.93430   0.81466   1.000
    Zr188   Zr   0.69935   0.43432   0.31466   1.000
    Zr189   Zr   0.69936   0.43431   0.81467   1.000
    Zr190   Zr   0.69936   0.93431   0.31466   1.000
    Zr191   Zr   0.69937   0.93430   0.81466   1.000
    Zr192   Zr   0.18067   0.47340   0.47340   1.000
    Zr193   Zr   0.18068   0.47340   0.97343   1.000
    Zr194   Zr   0.18067   0.97341   0.47343   1.000
    Zr195   Zr   0.18068   0.97340   0.97343   1.000
    Zr196   Zr   0.68066   0.47341   0.47343   1.000
    Zr197   Zr   0.68067   0.47340   0.97343   1.000
    Zr198   Zr   0.68066   0.97341   0.47343   1.000
    Zr199   Zr   0.68067   0.97340   0.97343   1.000
    Zr200   Zr   0.13385   0.06500   0.06498   1.000
    Zr201   Zr   0.13385   0.06499   0.56499   1.000
    Zr202   Zr   0.13385   0.56499   0.06499   1.000
    Zr203   Zr   0.13386   0.56498   0.56499   1.000
    Zr204   Zr   0.63384   0.06499   0.06498   1.000
    Zr205   Zr   0.63384   0.06499   0.56499   1.000
    Zr206   Zr   0.63384   0.56499   0.06499   1.000
    Zr207   Zr   0.63385   0.56498   0.56500   1.000
    Zr208   Zr   0.37821   0.27585   0.27586   1.000
    Zr209   Zr   0.37822   0.27585   0.77587   1.000
    Zr210   Zr   0.37820   0.77585   0.27580   1.000
    Zr211   Zr   0.37822   0.77584   0.77587   1.000
    Zr212   Zr   0.87819   0.27586   0.27586   1.000
    Zr213   Zr   0.87821   0.27585   0.77587   1.000
    Zr214   Zr   0.87819   0.77585   0.27587   1.000
    Zr215   Zr   0.87821   0.77584   0.77587   1.000
    Zr216   Zr   0.01425   0.18463   0.18465   1.000
    Zr217   Zr   0.01426   0.18462   0.68466   1.000
    Zr218   Zr   0.01425   0.68463   0.18465   1.000
    Zr219   Zr   0.01426   0.68462   0.68465   1.000
    Zr220   Zr   0.51424   0.18463   0.18460   1.000
    Zr221   Zr   0.51425   0.18463   0.68460   1.000
    Zr222   Zr   0.51424   0.68463   0.18465   1.000
    Zr223   Zr   0.51425   0.68462   0.68466   1.000
    O224    O    0.16529   0.03795   0.03793   1.000
    O225    O    0.18871   0.99215   0.99216   1.000
    O226    O    0.25001   0.00000   0.00003   1.000
    O227    O    0.66528   0.03795   0.03793   1.000
    O228    O    0.68870   0.99215   0.99216   1.000
    O229    O    0.75000   1.00000   0.00003   1.000
    O230    O    0.16529   0.53795   0.03794   1.000
    O231    O    0.18871   0.49215   0.99216   1.000
    O232    O    0.25000   0.50000   0.00002   1.000
    O233    O    0.66528   0.53795   0.03794   1.000
    O234    O    0.68870   0.49215   0.99216   1.000
    O235    O    0.74999   0.50000   0.00002   1.000
    O236    O    0.29642   0.71225   0.03845   1.000
    O237    O    0.31903   0.75772   0.99254   1.000
    O238    O    0.25001   0.75000   0.00000   1.000
    O239    O    0.29642   0.21225   0.03845   1.000
    O240    O    0.31903   0.25772   0.99254   1.000
    O241    O    0.25001   0.25000   0.00000   1.000
    O242    O    0.79641   0.71225   0.03846   1.000
    O243    O    0.81903   0.75772   0.99255   1.000
    O244    O    0.75000   0.74999   0.00002   1.000
    O245    O    0.79641   0.21225   0.03847   1.000
    O246    O    0.81902   0.25772   0.99256   1.000
    O247    O    0.75000   0.25000   0.00002   1.000
    O248    O    0.17070   0.17448   0.07572   1.000
    O249    O    0.18098   0.24228   0.00749   1.000
    O250    O    0.17070   0.67448   0.07572   1.000
    O251    O    0.18099   0.74227   0.00749   1.000
    O252    O    0.67069   0.17448   0.07572   1.000
    O253    O    0.68097   0.24228   0.00749   1.000
    O254    O    0.67069   0.67448   0.07572   1.000
    O255    O    0.68098   0.74227   0.00749   1.000
    O256    O    0.25329   0.07593   0.07594   1.000
    O257    O    0.31130   0.00785   0.00789   1.000
    O258    O    0.25329   0.57593   0.07595   1.000
    O259    O    0.31130   0.50785   0.00788   1.000
    O260    O    0.75328   0.07593   0.07594   1.000
    O261    O    0.81130   0.00784   0.00789   1.000
    O262    O    0.75328   0.57593   0.07595   1.000
    O263    O    0.81129   0.50785   0.00788   1.000
    O264    O    0.74394   0.15531   0.09548   1.000
    O265    O    0.24395   0.15531   0.09548   1.000
    O266    O    0.10075   0.15495   0.15496   1.000
    O267    O    0.17070   0.07571   0.17448   1.000
    O268    O    0.15452   0.17471   0.17472   1.000
    O269    O    0.60074   0.15495   0.15493   1.000
    O270    O    0.67069   0.07571   0.17448   1.000
    O271    O    0.65452   0.17471   0.17472   1.000
    O272    O    0.10075   0.65495   0.15496   1.000
    O273    O    0.24394   0.59548   0.15533   1.000
    O274    O    0.17070   0.57571   0.17449   1.000
    O275    O    0.15452   0.67471   0.17473   1.000
    O276    O    0.60074   0.65495   0.15496   1.000
    O277    O    0.74393   0.59548   0.15533   1.000
    O278    O    0.67069   0.57571   0.17449   1.000
    O279    O    0.65451   0.67471   0.17473   1.000
    O280    O    0.49154   0.21172   0.21170   1.000
    O281    O    0.99153   0.21172   0.21173   1.000
    O282    O    0.49153   0.71172   0.21173   1.000
    O283    O    0.99153   0.71172   0.21173   1.000
    O284    O    0.79640   0.53846   0.21227   1.000
    O285    O    0.79640   0.03846   0.21228   1.000
    O286    O    0.29641   0.53845   0.21227   1.000
    O287    O    0.29641   0.03846   0.21228   1.000
    O288    O    0.68097   0.00747   0.24228   1.000
    O289    O    0.18098   0.00747   0.24228   1.000
    O290    O    0.18098   0.50747   0.24229   1.000
    O291    O    0.68097   0.50747   0.24229   1.000
    O292    O    0.57647   0.24268   0.24270   1.000
    O293    O    0.07648   0.24268   0.24270   1.000
    O294    O    0.57647   0.74268   0.24270   1.000
    O295    O    0.07648   0.74268   0.24270   1.000
    O296    O    0.99999   0.75000   0.25002   1.000
    O297    O    0.92351   0.75733   0.25734   1.000
    O298    O    0.99999   0.25001   0.25002   1.000
    O299    O    0.92351   0.25733   0.25733   1.000
    O300    O    0.49999   0.75000   0.25002   1.000
    O301    O    0.42352   0.75733   0.25730   1.000
    O302    O    0.50000   0.25000   0.25002   1.000
    O303    O    0.42352   0.25733   0.25733   1.000
    O304    O    0.25000   0.50000   0.25002   1.000
    O305    O    0.31903   0.49253   0.25775   1.000
    O306    O    0.74999   0.50000   0.25002   1.000
    O307    O    0.81901   0.49253   0.25775   1.000
    O308    O    0.74999   0.00000   0.25002   1.000
    O309    O    0.81901   0.99254   0.25775   1.000
    O310    O    0.25000   0.00000   0.25002   1.000
    O311    O    0.31902   0.99254   0.25775   1.000
    O312    O    0.70358   0.96155   0.28776   1.000
    O313    O    0.20359   0.96155   0.28776   1.000
    O314    O    0.70357   0.46155   0.28777   1.000
    O315    O    0.20359   0.46155   0.28777   1.000
    O316    O    0.00846   0.28829   0.28831   1.000
    O317    O    0.00846   0.78829   0.28811   1.000
    O318    O    0.50846   0.28829   0.28831   1.000
    O319    O    0.50846   0.78829   0.28831   1.000
    O320    O    0.34548   0.82530   0.32528   1.000
    O321    O    0.34548   0.32530   0.32531   1.000
    O322    O    0.84546   0.32530   0.32531   1.000
    O323    O    0.84547   0.82530   0.32532   1.000
    O324    O    0.32930   0.42429   0.32555   1.000
    O325    O    0.82929   0.42430   0.32555   1.000
    O326    O    0.82929   0.92430   0.32555   1.000
    O327    O    0.32930   0.92430   0.32555   1.000
    O328    O    0.25606   0.90453   0.34471   1.000
    O329    O    0.75605   0.90453   0.34471   1.000
    O330    O    0.89924   0.84506   0.34488   1.000
    O331    O    0.89924   0.34506   0.34508   1.000
    O332    O    0.39925   0.34506   0.34508   1.000
    O333    O    0.39925   0.84506   0.34508   1.000
    O334    O    0.75604   0.34470   0.40453   1.000
    O335    O    0.74670   0.42408   0.42410   1.000
    O336    O    0.82929   0.32553   0.42432   1.000
    O337    O    0.24671   0.92408   0.42410   1.000
    O338    O    0.32931   0.82552   0.42432   1.000
    O339    O    0.74670   0.92408   0.42410   1.000
    O340    O    0.82930   0.82552   0.42432   1.000
    O341    O    0.25605   0.34469   0.40455   1.000
    O342    O    0.24671   0.42407   0.42408   1.000
    O343    O    0.32930   0.32552   0.42432   1.000
    O344    O    0.13068   0.84508   0.40494   1.000
    O345    O    0.70357   0.28776   0.46155   1.000
    O346    O    0.20359   0.28775   0.46157   1.000
    O347    O    0.20359   0.78775   0.46157   1.000
    O348    O    0.70358   0.78775   0.46157   1.000
    O349    O    0.83470   0.46206   0.46207   1.000
    O350    O    0.33471   0.46206   0.46209   1.000
    O351    O    0.83470   0.96206   0.46210   1.000
    O352    O    0.33471   0.96206   0.46210   1.000
    O353    O    0.18871   0.49215   0.49215   1.000
    O354    O    0.18871   0.99215   0.49216   1.000
    O355    O    0.68870   0.99216   0.49216   1.000
    O356    O    0.68870   0.49215   0.49216   1.000
    O357    O    0.31903   0.25772   0.49255   1.000
    O358    O    0.81902   0.75772   0.49255   1.000
    O359    O    0.81902   0.25772   0.49255   1.000
    O360    O    0.31903   0.75772   0.49255   1.000
    O361    O    0.25001   0.75000   0.50002   1.000
    O362    O    0.18099   0.74227   0.50748   1.000
    O363    O    0.75000   0.75000   0.50002   1.000
    O364    O    0.68098   0.74227   0.50748   1.000
    O365    O    0.75000   0.25000   0.50002   1.000
    O366    O    0.68097   0.24228   0.50749   1.000
    O367    O    0.25001   0.25000   0.50002   1.000
    O368    O    0.18098   0.24227   0.50749   1.000
    O369    O    0.75000   0.50000   0.50000   1.000
    O370    O    0.81129   0.50785   0.50786   1.000
    O371    O    0.25001   0.50000   0.50002   1.000
    O372    O    0.31131   0.50785   0.50788   1.000
    O373    O    0.75000   0.00000   0.50002   1.000
    O374    O    0.81129   0.00785   0.50788   1.000
    O375    O    0.25000   0.00000   0.50002   1.000
    O376    O    0.31130   0.00785   0.50788   1.000
    O377    O    0.66529   0.03794   0.53794   1.000
    O378    O    0.16531   0.53794   0.53794   1.000
    O379    O    0.16530   0.03794   0.53794   1.000
    O380    O    0.66529   0.53794   0.53795   1.000
    O381    O    0.29643   0.21224   0.53847   1.000
    O382    O    0.29643   0.71224   0.53847   1.000
    O383    O    0.79642   0.21225   0.53847   1.000
    O384    O    0.79642   0.71224   0.53847   1.000
    O385    O    0.17071   0.67447   0.57572   1.000
    O386    O    0.67070   0.67447   0.57572   1.000
    O387    O    0.67070   0.17447   0.57573   1.000
    O388    O    0.17071   0.17447   0.57573   1.000
    O389    O    0.25330   0.07592   0.57595   1.000
    O390    O    0.25331   0.57592   0.57595   1.000
    O391    O    0.75329   0.07592   0.57595   1.000
    O392    O    0.75330   0.57592   0.57595   1.000
    O393    O    0.74395   0.15530   0.59549   1.000
    O394    O    0.24396   0.15530   0.59549   1.000
    O395    O    0.60075   0.65494   0.65497   1.000
    O396    O    0.74395   0.59547   0.65533   1.000
    O397    O    0.67070   0.57570   0.67449   1.000
    O398    O    0.65453   0.67470   0.67473   1.000
    O399    O    0.60075   0.15494   0.65494   1.000
    O400    O    0.67070   0.07570   0.67449   1.000
    O401    O    0.65453   0.17470   0.67473   1.000
    O402    O    0.10077   0.65494   0.65496   1.000
    O403    O    0.24396   0.59547   0.65533   1.000
    O404    O    0.17072   0.57570   0.67449   1.000
    O405    O    0.15454   0.67470   0.67473   1.000
    O406    O    0.10076   0.15494   0.65497   1.000
    O407    O    0.17071   0.07570   0.67449   1.000
    O408    O    0.15454   0.17470   0.67473   1.000
    O409    O    0.49155   0.21171   0.71171   1.000
    O410    O    0.99155   0.71171   0.71173   1.000
    O411    O    0.49155   0.71171   0.71174   1.000
    O412    O    0.99155   0.21171   0.71174   1.000
    O413    O    0.29643   0.53845   0.71228   1.000
    O414    O    0.79642   0.53845   0.71228   1.000
    O415    O    0.29642   0.03845   0.71229   1.000
    O416    O    0.79641   0.03845   0.71229   1.000
    O417    O    0.68098   0.50746   0.74229   1.000
    O418    O    0.68099   0.00746   0.74229   1.000
    O419    O    0.18099   0.50746   0.74229   1.000
    O420    O    0.18100   0.00746   0.74229   1.000
    O421    O    0.57648   0.24267   0.74271   1.000
    O422    O    0.57649   0.74267   0.74271   1.000
    O423    O    0.07650   0.74267   0.74270   1.000
    O424    O    0.07650   0.24267   0.74271   1.000
    O425    O    0.00001   0.74999   0.75002   1.000
    O426    O    0.92352   0.75732   0.75734   1.000
    O427    O    0.00001   0.25000   0.75003   1.000
    O428    O    0.92352   0.25732   0.75734   1.000
    O429    O    0.50001   0.74999   0.75003   1.000
    O430    O    0.42353   0.75732   0.75734   1.000
    O431    O    0.50001   0.25000   0.75003   1.000
    O432    O    0.42353   0.25732   0.75734   1.000
    O433    O    0.25001   0.49999   0.75002   1.000
    O434    O    0.31904   0.49252   0.75775   1.000
    O435    O    0.75000   0.49999   0.75003   1.000
    O436    O    0.81903   0.49253   0.75775   1.000
    O437    O    0.25001   0.99999   0.75003   1.000
    O438    O    0.31903   0.99253   0.75776   1.000
    O439    O    0.75000   0.99999   0.75003   1.000
    O440    O    0.81902   0.99253   0.75776   1.000
    O441    O    0.70360   0.96154   0.78777   1.000
    O442    O    0.20361   0.96154   0.78777   1.000
    O443    O    0.20360   0.46154   0.78777   1.000
    O444    O    0.70359   0.46154   0.78778   1.000
    O445    O    0.00847   0.78828   0.78831   1.000
    O446    O    0.00847   0.28828   0.78832   1.000
    O447    O    0.50847   0.28829   0.78832   1.000
    O448    O    0.50847   0.78828   0.78832   1.000
    O449    O    0.34549   0.82529   0.82528   1.000
    O450    O    0.84548   0.32529   0.82528   1.000
    O451    O    0.34549   0.32529   0.82532   1.000
    O452    O    0.84548   0.82529   0.82532   1.000
    O453    O    0.32932   0.92428   0.82552   1.000
    O454    O    0.82931   0.92428   0.82555   1.000
    O455    O    0.32931   0.42429   0.82555   1.000
    O456    O    0.82930   0.42429   0.82552   1.000
    O457    O    0.25607   0.90452   0.84468   1.000
    O458    O    0.75606   0.90452   0.84471   1.000
    O459    O    0.25607   0.40452   0.84472   1.000
    O460    O    0.75606   0.40452   0.84468   1.000
    O461    O    0.89925   0.34505   0.84505   1.000
    O462    O    0.39926   0.34505   0.84508   1.000
    O463    O    0.39927   0.84505   0.84505   1.000
    O464    O    0.89926   0.84505   0.84508   1.000
    O465    O    0.74671   0.42407   0.92406   1.000
    O466    O    0.82930   0.32552   0.92429   1.000
    O467    O    0.24672   0.92407   0.92406   1.000
    O468    O    0.32932   0.82551   0.92429   1.000
    O469    O    0.24672   0.42407   0.92410   1.000
    O470    O    0.32931   0.32552   0.92432   1.000
    O471    O    0.74671   0.92406   0.92410   1.000
    O472    O    0.82931   0.82551   0.92432   1.000
    O473    O    0.20359   0.28775   0.96158   1.000
    O474    O    0.20360   0.78775   0.96158   1.000
    O475    O    0.70358   0.28775   0.96158   1.000
    O476    O    0.70359   0.78774   0.96158   1.000
    O477    O    0.83471   0.96205   0.96211   1.000
    O478    O    0.83471   0.46206   0.96210   1.000
    O479    O    0.33472   0.46206   0.96210   1.000
    O480    O    0.33472   0.96205   0.96211   1.000
    O481    O    0.36933   0.15492   0.09510   1.000
    O482    O    0.36934   0.15491   0.59511   1.000
    O483    O    0.36933   0.65492   0.09510   1.000
    O484    O    0.24395   0.65531   0.09549   1.000
    O485    O    0.36934   0.65491   0.59510   1.000
    O486    O    0.24397   0.65530   0.59549   1.000
    O487    O    0.86932   0.15492   0.09510   1.000
    O488    O    0.86933   0.15492   0.59511   1.000
    O489    O    0.86932   0.65492   0.09510   1.000
    O490    O    0.74394   0.65531   0.09549   1.000
    O491    O    0.86933   0.65491   0.59510   1.000
    O492    O    0.74395   0.65530   0.59549   1.000
    O493    O    0.36932   0.09509   0.15495   1.000
    O494    O    0.24394   0.09548   0.15533   1.000
    O495    O    0.36933   0.09508   0.65495   1.000
    O496    O    0.24395   0.09547   0.65534   1.000
    O497    O    0.36932   0.59508   0.15495   1.000
    O498    O    0.36934   0.59508   0.65494   1.000
    O499    O    0.86931   0.09509   0.15495   1.000
    O500    O    0.74393   0.09548   0.15533   1.000
    O501    O    0.86932   0.09508   0.65495   1.000
    O502    O    0.74394   0.09547   0.65534   1.000
    O503    O    0.86931   0.59508   0.15495   1.000
    O504    O    0.86933   0.59508   0.65494   1.000
    O505    O    0.46407   0.40527   0.40529   1.000
    O506    O    0.33945   0.40488   0.40491   1.000
    O507    O    0.46408   0.40527   0.90530   1.000
    O508    O    0.33946   0.40487   0.90491   1.000
    O509    O    0.46407   0.90527   0.40530   1.000
    O510    O    0.33945   0.90488   0.40491   1.000
    O511    O    0.46408   0.90526   0.90530   1.000
    O512    O    0.33946   0.90487   0.90488   1.000
    O513    O    0.96407   0.40527   0.40529   1.000
    O514    O    0.83944   0.40488   0.40491   1.000
    O515    O    0.96408   0.40527   0.90530   1.000
    O516    O    0.83945   0.40487   0.90488   1.000
    O517    O    0.96407   0.90527   0.40530   1.000
    O518    O    0.83944   0.90488   0.40491   1.000
    O519    O    0.96408   0.90526   0.90530   1.000
    O520    O    0.83946   0.90487   0.90491   1.000
    O521    O    0.52387   0.34545   0.34546   1.000
    O522    O    0.52388   0.34545   0.84547   1.000
    O523    O    0.52387   0.84545   0.34546   1.000
    O524    O    0.52388   0.84544   0.84547   1.000
    O525    O    0.02387   0.34545   0.34546   1.000
    O526    O    0.02388   0.34545   0.84547   1.000
    O527    O    0.02387   0.84545   0.34527   1.000
    O528    O    0.02388   0.84544   0.84547   1.000
    O529    O    0.13067   0.34508   0.40494   1.000
    O530    O    0.13068   0.34508   0.90495   1.000
    O531    O    0.25606   0.34469   0.90456   1.000
    O532    O    0.25605   0.84470   0.40455   1.000
    O533    O    0.13069   0.84508   0.90495   1.000
    O534    O    0.25607   0.84469   0.90452   1.000
    O535    O    0.63066   0.34509   0.40492   1.000
    O536    O    0.63067   0.34508   0.90495   1.000
    O537    O    0.75605   0.34469   0.90452   1.000
    O538    O    0.63067   0.84508   0.40494   1.000
    O539    O    0.75604   0.84470   0.40456   1.000
    O540    O    0.63068   0.84508   0.90495   1.000
    O541    O    0.75606   0.84468   0.90456   1.000
    O542    O    0.13068   0.40492   0.34510   1.000
    O543    O    0.25606   0.40453   0.34471   1.000
    O544    O    0.13069   0.40492   0.84511   1.000
    O545    O    0.13068   0.90492   0.34510   1.000
    O546    O    0.13069   0.90491   0.84510   1.000
    O547    O    0.63067   0.40492   0.34510   1.000
    O548    O    0.75604   0.40453   0.34471   1.000
    O549    O    0.63068   0.40492   0.84511   1.000
    O550    O    0.63067   0.90492   0.34510   1.000
    O551    O    0.63069   0.90491   0.84510   1.000
    O552    O    0.03592   0.09474   0.09474   1.000
    O553    O    0.16055   0.09513   0.09512   1.000
    O554    O    0.03593   0.09473   0.59475   1.000
    O555    O    0.16056   0.09512   0.59513   1.000
    O556    O    0.03592   0.59473   0.09475   1.000
    O557    O    0.16055   0.59513   0.09513   1.000
    O558    O    0.03594   0.59473   0.59474   1.000
    O559    O    0.16056   0.59512   0.59513   1.000
    O560    O    0.53592   0.09474   0.09474   1.000
    O561    O    0.66054   0.09513   0.09512   1.000
    O562    O    0.53593   0.09473   0.59475   1.000
    O563    O    0.66055   0.09512   0.59513   1.000
    O564    O    0.53593   0.59473   0.09475   1.000
    O565    O    0.66054   0.59513   0.09513   1.000
    O566    O    0.53594   0.59473   0.59475   1.000
    O567    O    0.66055   0.59512   0.59514   1.000
    O568    O    0.97612   0.15456   0.15457   1.000
    O569    O    0.97613   0.15455   0.65458   1.000
    O570    O    0.97612   0.65455   0.15457   1.000
    O571    O    0.97614   0.65455   0.65458   1.000
    O572    O    0.47612   0.15456   0.15455   1.000
    O573    O    0.47613   0.15455   0.65455   1.000
    O574    O    0.47612   0.65455   0.15457   1.000
    O575    O    0.47614   0.65455   0.65458   1.000
loop_
    _geom_bond_atom_site_label_1
    _geom_bond_atom_site_label_2
    _geom_bond_distance
    _geom_bond_site_symmetry_2
    _ccdc_geom_bond_type
    Zr80   O224      0.63397      .   S
    Zr200  O224      0.63397      .   S
    Zr80   O225      0.63247  1_544   S
    Zr195  O225      0.63247      .   S
    Zr80   O226      0.77292      .   S
    Zr51   O226      0.77292  1_566   S
    Zr84   O227      0.63397      .   S
    Zr204  O227      0.63397      .   S
    Zr84   O228      0.63246  1_544   S
    Zr199  O228      0.63246      .   S
    Zr84   O229      0.77292  1_545   S
    Zr55   O229      0.77292  1_556   S
    Zr82   O230      0.63398      .   S
    Zr202  O230      0.63398      .   S
    Zr82   O231      0.63253  1_554   S
    Zr193  O231      0.63253      .   S
    Zr82   O232      0.77284      .   S
    Zr49   O232      0.77284  1_556   S
    Zr86   O233      0.63398      .   S
    Zr206  O233      0.63398      .   S
    Zr86   O234      0.63254  1_554   S
    Zr197  O234      0.63254      .   S
    Zr86   O235      0.77283      .   S
    Zr53   O235      0.77283  1_556   S
    Zr34   O236      0.63423      .   S
    Zr106  O236      0.63423      .   S
    Zr34   O237      0.63246  1_554   S
    Zr99   O237      0.63246      .   S
    Zr34   O238      0.77233      .   S
    Zr67   O238      0.77233  1_556   S
    Zr32   O239      0.63425      .   S
    Zr104  O239      0.63425      .   S
    Zr32   O240      0.63246  1_554   S
    Zr97   O240      0.63246      .   S
    Zr32   O241      0.77232      .   S
    Zr65   O241      0.77232  1_556   S
    Zr38   O242      0.63404      .   S
    Zr110  O242      0.63404      .   S
    Zr38   O243      0.63249  1_554   S
    Zr103  O243      0.63249      .   S
    Zr38   O244      0.77251      .   S
    Zr71   O244      0.77251  1_556   S
    Zr36   O245      0.63400      .   S
    Zr108  O245      0.63400      .   S
    Zr36   O246      0.63249  1_554   S
    Zr101  O246      0.63249      .   S
    Zr36   O247      0.77256      .   S
    Zr69   O247      0.77256  1_556   S
    Zr160  O248      1.18414      .   S
    Zr24   O248      1.18414      .   S
    Zr160  O249      0.63249      .   S
    Zr65   O249      0.63249  1_556   S
    Zr162  O250      1.18418      .   S
    Zr26   O250      1.18418      .   S
    Zr162  O251      0.63250      .   S
    Zr67   O251      0.63250  1_556   S
    Zr164  O252      1.18414      .   S
    Zr28   O252      1.18414      .   S
    Zr164  O253      0.63250      .   S
    Zr69   O253      0.63250  1_556   S
    Zr166  O254      1.18417      .   S
    Zr30   O254      1.18417      .   S
    Zr166  O255      0.63250      .   S
    Zr71   O255      0.63250  1_556   S
    Zr128  O256      1.18421      .   S
    Zr24   O256      1.18421      .   S
    Zr128  O257      0.63245      .   S
    Zr51   O257      0.63245  1_566   S
    Zr130  O258      1.18424      .   S
    Zr26   O258      1.18424      .   S
    Zr130  O259      0.63253      .   S
    Zr49   O259      0.63253  1_556   S
    Zr132  O260      1.18421      .   S
    Zr28   O260      1.18421      .   S
    Zr132  O261      0.63246      .   S
    Zr55   O261      0.63246  1_566   S
    Zr134  O262      1.18425      .   S
    Zr30   O262      1.18425      .   S
    Zr134  O263      0.63253      .   S
    Zr53   O263      0.63253  1_556   S
    Zr108  O264      1.19985      .   S
    Zr28   O264      1.19985      .   S
    Zr104  O265      1.19986      .   S
    Zr24   O265      1.19986      .   S
    Zr24   O266      1.19938      .   S
    Zr216  O266      1.19938      .   S
    Zr24   O267      1.18419      .   S
    Zr176  O267      1.18419      .   S
    Zr24   O268      1.18415      .   S
    Zr144  O268      1.18415      .   S
    Zr28   O269      1.19939      .   S
    Zr220  O269      1.19939      .   S
    Zr28   O270      1.18419      .   S
    Zr180  O270      1.18419      .   S
    Zr28   O271      1.18414      .   S
    Zr148  O271      1.18414      .   S
    Zr26   O272      1.19939      .   S
    Zr218  O272      1.19939      .   S
    Zr26   O273      1.19985      .   S
    Zr122  O273      1.19985      .   S
    Zr26   O274      1.18417      .   S
    Zr178  O274      1.18417      .   S
    Zr26   O275      1.18414      .   S
    Zr146  O275      1.18414      .   S
    Zr30   O276      1.19938      .   S
    Zr222  O276      1.19938      .   S
    Zr30   O277      1.19984      .   S
    Zr126  O277      1.19984      .   S
    Zr30   O278      1.18417      .   S
    Zr182  O278      1.18417      .   S
    Zr30   O279      1.18414      .   S
    Zr150  O279      1.18414      .   S
    Zr220  O280      0.63436      .   S
    Zr88   O280      0.63436      .   S
    Zr216  O281      0.63403  1_455   S
    Zr92   O281      0.63403      .   S
    Zr222  O282      0.63405      .   S
    Zr90   O282      0.63405      .   S
    Zr218  O283      0.63403  1_455   S
    Zr94   O283      0.63403      .   S
    Zr126  O284      0.63398      .   S
    Zr46   O284      0.63398      .   S
    Zr124  O285      0.63402      .   S
    Zr44   O285      0.63402      .   S
    Zr122  O286      0.63399      .   S
    Zr42   O286      0.63399      .   S
    Zr120  O287      0.63401      .   S
    Zr40   O287      0.63401      .   S
    Zr180  O288      0.63257      .   S
    Zr78   O288      0.63257  1_565   S
    Zr176  O289      0.63257      .   S
    Zr74   O289      0.63257  1_565   S
    Zr178  O290      0.63250      .   S
    Zr72   O290      0.63250      .   S
    Zr182  O291      0.63250      .   S
    Zr76   O291      0.63250      .   S
    Zr148  O292      0.63244      .   S
    Zr60   O292      0.63244      .   S
    Zr144  O293      0.63244      .   S
    Zr56   O293      0.63244      .   S
    Zr150  O294      0.63243      .   S
    Zr62   O294      0.63243      .   S
    Zr146  O295      0.63243      .   S
    Zr58   O295      0.63243      .   S
    Zr94   O296      0.77288      .   S
    Zr58   O296      0.77288  1_455   S
    Zr94   O297      0.63244      .   S
    Zr214  O297      0.63244      .   S
    Zr92   O298      0.77287      .   S
    Zr56   O298      0.77287  1_455   S
    Zr92   O299      0.63243      .   S
    Zr212  O299      0.63243      .   S
    Zr90   O300      0.77269      .   S
    Zr62   O300      0.77269      .   S
    Zr90   O301      0.63238      .   S
    Zr210  O301      0.63238      .   S
    Zr88   O302      0.77270      .   S
    Zr60   O302      0.77270      .   S
    Zr88   O303      0.63243      .   S
    Zr208  O303      0.63243      .   S
    Zr42   O304      0.77269      .   S
    Zr72   O304      0.77269      .   S
    Zr42   O305      0.63252      .   S
    Zr112  O305      0.63252      .   S
    Zr46   O306      0.77269      .   S
    Zr76   O306      0.77269      .   S
    Zr46   O307      0.63251      .   S
    Zr116  O307      0.63251      .   S
    Zr44   O308      0.77264      .   S
    Zr78   O308      0.77264  1_565   S
    Zr44   O309      0.63259  1_545   S
    Zr118  O309      0.63259      .   S
    Zr40   O310      0.77264      .   S
    Zr74   O310      0.77264  1_565   S
    Zr40   O311      0.63259  1_545   S
    Zr114  O311      0.63259      .   S
    Zr78   O312      0.63404      .   S
    Zr190  O312      0.63404      .   S
    Zr74   O313      0.63404      .   S
    Zr186  O313      0.63404      .   S
    Zr76   O314      0.63402      .   S
    Zr188  O314      0.63402      .   S
    Zr72   O315      0.63402      .   S
    Zr184  O315      0.63402      .   S
    Zr56   O316      0.63402      .   S
    Zr156  O316      0.63402  1_655   S
    Zr58   O317      0.63160      .   S
    Zr158  O317      0.63160  1_655   S
    Zr60   O318      0.63404      .   S
    Zr152  O318      0.63404      .   S
    Zr62   O319      0.63405      .   S
    Zr154  O319      0.63405      .   S
    Zr210  O320      1.18461      .   S
    Zr18   O320      1.18461      .   S
    Zr208  O321      1.18419      .   S
    Zr16   O321      1.18419      .   S
    Zr212  O322      1.18420      .   S
    Zr20   O322      1.18420      .   S
    Zr214  O323      1.18414      .   S
    Zr22   O323      1.18414      .   S
    Zr112  O324      1.18419      .   S
    Zr16   O324      1.18419      .   S
    Zr116  O325      1.18418      .   S
    Zr20   O325      1.18418      .   S
    Zr118  O326      1.18415      .   S
    Zr22   O326      1.18415      .   S
    Zr114  O327      1.18416      .   S
    Zr18   O327      1.18416      .   S
    Zr186  O328      1.19983      .   S
    Zr18   O328      1.19983      .   S
    Zr190  O329      1.19983      .   S
    Zr22   O329      1.19983      .   S
    Zr158  O330      1.19934      .   S
    Zr22   O330      1.19934      .   S
    Zr156  O331      1.19939      .   S
    Zr20   O331      1.19939      .   S
    Zr152  O332      1.19939      .   S
    Zr16   O332      1.19939      .   S
    Zr154  O333      1.19939      .   S
    Zr18   O333      1.19939      .   S
    Zr20   O334      1.19986      .   S
    Zr172  O334      1.19986      .   S
    Zr20   O335      1.18425      .   S
    Zr196  O335      1.18425      .   S
    Zr20   O336      1.18414      .   S
    Zr100  O336      1.18414      .   S
    Zr18   O337      1.18426      .   S
    Zr194  O337      1.18426      .   S
    Zr18   O338      1.18416      .   S
    Zr98   O338      1.18416      .   S
    Zr22   O339      1.18426      .   S
    Zr198  O339      1.18426      .   S
    Zr22   O340      1.18416      .   S
    Zr102  O340      1.18416      .   S
    Zr16   O341      1.19985      .   S
    Zr168  O341      1.19985      .   S
    Zr16   O342      1.18411      .   S
    Zr192  O342      1.18411      .   S
    Zr16   O343      1.18413      .   S
    Zr96   O343      1.18413      .   S
    Zr10   O344      1.36344      .   S
    Zr170  O344      1.36344      .   S
    Zr172  O345      0.63433      .   S
    Zr68   O345      0.63433      .   S
    Zr168  O346      0.63407      .   S
    Zr64   O346      0.63407      .   S
    Zr170  O347      0.63403      .   S
    Zr66   O347      0.63403      .   S
    Zr174  O348      0.63397      .   S
    Zr70   O348      0.63397      .   S
    Zr140  O349      0.63376      .   S
    Zr52   O349      0.63376      .   S
    Zr136  O350      0.63396      .   S
    Zr48   O350      0.63396      .   S
    Zr142  O351      0.63396      .   S
    Zr54   O351      0.63396      .   S
    Zr138  O352      0.63396      .   S
    Zr50   O352      0.63396      .   S
    Zr192  O353      0.63275      .   S
    Zr83   O353      0.63275      .   S
    Zr194  O354      0.63252      .   S
    Zr81   O354      0.63252  1_545   S
    Zr198  O355      0.63252      .   S
    Zr85   O355      0.63252  1_545   S
    Zr196  O356      0.63253      .   S
    Zr87   O356      0.63253      .   S
    Zr96   O357      0.63251      .   S
    Zr33   O357      0.63251      .   S
    Zr102  O358      0.63251      .   S
    Zr39   O358      0.63251      .   S
    Zr100  O359      0.63251      .   S
    Zr37   O359      0.63251      .   S
    Zr98   O360      0.63251      .   S
    Zr35   O360      0.63251      .   S
    Zr66   O361      0.77271      .   S
    Zr35   O361      0.77271      .   S
    Zr66   O362      0.63250      .   S
    Zr163  O362      0.63250      .   S
    Zr70   O363      0.77271      .   S
    Zr39   O363      0.77271      .   S
    Zr70   O364      0.63251      .   S
    Zr167  O364      0.63251      .   S
    Zr68   O365      0.77265      .   S
    Zr37   O365      0.77265      .   S
    Zr68   O366      0.63250      .   S
    Zr165  O366      0.63250      .   S
    Zr64   O367      0.77264      .   S
    Zr33   O367      0.77264      .   S
    Zr64   O368      0.63251      .   S
    Zr161  O368      0.63251      .   S
    Zr52   O369      0.77263      .   S
    Zr87   O369      0.77263      .   S
    Zr52   O370      0.63288      .   S
    Zr135  O370      0.63288      .   S
    Zr48   O371      0.77272      .   S
    Zr83   O371      0.77272      .   S
    Zr48   O372      0.63260      .   S
    Zr131  O372      0.63260      .   S
    Zr54   O373      0.77279  1_565   S
    Zr85   O373      0.77279      .   S
    Zr54   O374      0.63252  1_565   S
    Zr133  O374      0.63252      .   S
    Zr50   O375      0.77279  1_565   S
    Zr81   O375      0.77279      .   S
    Zr50   O376      0.63251  1_565   S
    Zr129  O376      0.63251      .   S
    Zr85   O377      0.63396      .   S
    Zr205  O377      0.63396      .   S
    Zr83   O378      0.63398      .   S
    Zr203  O378      0.63398      .   S
    Zr81   O379      0.63396      .   S
    Zr201  O379      0.63396      .   S
    Zr87   O380      0.63403      .   S
    Zr207  O380      0.63403      .   S
    Zr33   O381      0.63406      .   S
    Zr105  O381      0.63406      .   S
    Zr35   O382      0.63401      .   S
    Zr107  O382      0.63401      .   S
    Zr37   O383      0.63406      .   S
    Zr109  O383      0.63406      .   S
    Zr39   O384      0.63401      .   S
    Zr111  O384      0.63401      .   S
    Zr163  O385      1.18419      .   S
    Zr27   O385      1.18419      .   S
    Zr167  O386      1.18418      .   S
    Zr31   O386      1.18418      .   S
    Zr165  O387      1.18412      .   S
    Zr29   O387      1.18412      .   S
    Zr161  O388      1.18413      .   S
    Zr25   O388      1.18413      .   S
    Zr129  O389      1.18425      .   S
    Zr25   O389      1.18425      .   S
    Zr131  O390      1.18425      .   S
    Zr27   O390      1.18425      .   S
    Zr133  O391      1.18425      .   S
    Zr29   O391      1.18425      .   S
    Zr135  O392      1.18424      .   S
    Zr31   O392      1.18424      .   S
    Zr109  O393      1.19985      .   S
    Zr29   O393      1.19985      .   S
    Zr105  O394      1.19986      .   S
    Zr25   O394      1.19986      .   S
    Zr31   O395      1.19938      .   S
    Zr223  O395      1.19938      .   S
    Zr31   O396      1.19985      .   S
    Zr127  O396      1.19985      .   S
    Zr31   O397      1.18412      .   S
    Zr183  O397      1.18412      .   S
    Zr31   O398      1.18415      .   S
    Zr151  O398      1.18415      .   S
    Zr29   O399      1.19939      .   S
    Zr221  O399      1.19939      .   S
    Zr29   O400      1.18418      .   S
    Zr181  O400      1.18418      .   S
    Zr29   O401      1.18416      .   S
    Zr149  O401      1.18416      .   S
    Zr27   O402      1.19938      .   S
    Zr219  O402      1.19938      .   S
    Zr27   O403      1.19985      .   S
    Zr123  O403      1.19985      .   S
    Zr27   O404      1.18416      .   S
    Zr179  O404      1.18416      .   S
    Zr27   O405      1.18414      .   S
    Zr147  O405      1.18414      .   S
    Zr25   O406      1.19938      .   S
    Zr217  O406      1.19938      .   S
    Zr25   O407      1.18418      .   S
    Zr177  O407      1.18418      .   S
    Zr25   O408      1.18416      .   S
    Zr145  O408      1.18416      .   S
    Zr221  O409      0.63443      .   S
    Zr89   O409      0.63443      .   S
    Zr219  O410      0.63409  1_455   S
    Zr95   O410      0.63409      .   S
    Zr223  O411      0.63404      .   S
    Zr91   O411      0.63404      .   S
    Zr217  O412      0.63403  1_455   S
    Zr93   O412      0.63403      .   S
    Zr123  O413      0.63402      .   S
    Zr43   O413      0.63402      .   S
    Zr127  O414      0.63402      .   S
    Zr47   O414      0.63402      .   S
    Zr121  O415      0.63401      .   S
    Zr41   O415      0.63401      .   S
    Zr125  O416      0.63402      .   S
    Zr45   O416      0.63402      .   S
    Zr183  O417      0.63264      .   S
    Zr77   O417      0.63264      .   S
    Zr181  O418      0.63257      .   S
    Zr79   O418      0.63257  1_565   S
    Zr179  O419      0.63249      .   S
    Zr73   O419      0.63249      .   S
    Zr177  O420      0.63258      .   S
    Zr75   O420      0.63258  1_565   S
    Zr149  O421      0.63244      .   S
    Zr61   O421      0.63244      .   S
    Zr151  O422      0.63244      .   S
    Zr63   O422      0.63244      .   S
    Zr147  O423      0.63243      .   S
    Zr59   O423      0.63243      .   S
    Zr145  O424      0.63244      .   S
    Zr57   O424      0.63244      .   S
    Zr95   O425      0.77282  1_655   S
    Zr59   O425      0.77282      .   S
    Zr95   O426      0.63243      .   S
    Zr215  O426      0.63243      .   S
    Zr93   O427      0.77288  1_655   S
    Zr57   O427      0.77288      .   S
    Zr93   O428      0.63243      .   S
    Zr213  O428      0.63243      .   S
    Zr91   O429      0.77270      .   S
    Zr63   O429      0.77270      .   S
    Zr91   O430      0.63243      .   S
    Zr211  O430      0.63243      .   S
    Zr89   O431      0.77270      .   S
    Zr61   O431      0.77270      .   S
    Zr89   O432      0.63243      .   S
    Zr209  O432      0.63243      .   S
    Zr43   O433      0.77271      .   S
    Zr73   O433      0.77271      .   S
    Zr43   O434      0.63251      .   S
    Zr113  O434      0.63251      .   S
    Zr47   O435      0.77269      .   S
    Zr77   O435      0.77269      .   S
    Zr47   O436      0.63251      .   S
    Zr117  O436      0.63251      .   S
    Zr41   O437      0.77264  1_545   S
    Zr75   O437      0.77264      .   S
    Zr41   O438      0.63252  1_545   S
    Zr115  O438      0.63252      .   S
    Zr45   O439      0.77265  1_545   S
    Zr79   O439      0.77265      .   S
    Zr45   O440      0.63252  1_545   S
    Zr119  O440      0.63252      .   S
    Zr79   O441      0.63401      .   S
    Zr191  O441      0.63401      .   S
    Zr75   O442      0.63400      .   S
    Zr187  O442      0.63400      .   S
    Zr73   O443      0.63407      .   S
    Zr185  O443      0.63407      .   S
    Zr77   O444      0.63401      .   S
    Zr189  O444      0.63401      .   S
    Zr59   O445      0.63409      .   S
    Zr159  O445      0.63409  1_655   S
    Zr57   O446      0.63403      .   S
    Zr157  O446      0.63403  1_655   S
    Zr61   O447      0.63405      .   S
    Zr153  O447      0.63405      .   S
    Zr63   O448      0.63404      .   S
    Zr155  O448      0.63404      .   S
    Zr211  O449      1.18367      .   S
    Zr19   O449      1.18367      .   S
    Zr213  O450      1.18366      .   S
    Zr21   O450      1.18366      .   S
    Zr209  O451      1.18412      .   S
    Zr17   O451      1.18412      .   S
    Zr215  O452      1.18414      .   S
    Zr23   O452      1.18414      .   S
    Zr115  O453      1.18385      .   S
    Zr19   O453      1.18385      .   S
    Zr119  O454      1.18417      .   S
    Zr23   O454      1.18417      .   S
    Zr113  O455      1.18414      .   S
    Zr17   O455      1.18414      .   S
    Zr117  O456      1.18383      .   S
    Zr21   O456      1.18383      .   S
    Zr187  O457      1.19935      .   S
    Zr19   O457      1.19935      .   S
    Zr191  O458      1.19983      .   S
    Zr23   O458      1.19983      .   S
    Zr185  O459      1.19979      .   S
    Zr17   O459      1.19979      .   S
    Zr189  O460      1.19931      .   S
    Zr21   O460      1.19931      .   S
    Zr157  O461      1.19942      .   S
    Zr21   O461      1.19942      .   S
    Zr153  O462      1.19940      .   S
    Zr17   O462      1.19940      .   S
    Zr155  O463      1.19940      .   S
    Zr19   O463      1.19940      .   S
    Zr159  O464      1.19939      .   S
    Zr23   O464      1.19939      .   S
    Zr21   O465      1.18457      .   S
    Zr197  O465      1.18457      .   S
    Zr21   O466      1.18468      .   S
    Zr101  O466      1.18468      .   S
    Zr19   O467      1.18459      .   S
    Zr195  O467      1.18459      .   S
    Zr19   O468      1.18468      .   S
    Zr99   O468      1.18468      .   S
    Zr17   O469      1.18425      .   S
    Zr193  O469      1.18425      .   S
    Zr17   O470      1.18420      .   S
    Zr97   O470      1.18420      .   S
    Zr23   O471      1.18427      .   S
    Zr199  O471      1.18427      .   S
    Zr23   O472      1.18416      .   S
    Zr103  O472      1.18416      .   S
    Zr169  O473      0.63401      .   S
    Zr65   O473      0.63401      .   S
    Zr171  O474      0.63400      .   S
    Zr67   O474      0.63400      .   S
    Zr173  O475      0.63401      .   S
    Zr69   O475      0.63401      .   S
    Zr175  O476      0.63401      .   S
    Zr71   O476      0.63401      .   S
    Zr143  O477      0.63401      .   S
    Zr55   O477      0.63401      .   S
    Zr141  O478      0.63398      .   S
    Zr53   O478      0.63398      .   S
    Zr137  O479      0.63398      .   S
    Zr49   O479      0.63398      .   S
    Zr139  O480      0.63402      .   S
    Zr51   O480      0.63402      .   S
    Zr104  O481      1.36346      .   S
    Zr0    O481      1.36346      .   S
    Zr105  O482      1.36345      .   S
    Zr1    O482      1.36345      .   S
    Zr106  O483      1.36348      .   S
    Zr2    O483      1.36348      .   S
    Zr106  O484      1.19986      .   S
    Zr26   O484      1.19986      .   S
    Zr107  O485      1.36346      .   S
    Zr3    O485      1.36346      .   S
    Zr107  O486      1.19986      .   S
    Zr27   O486      1.19986      .   S
    Zr108  O487      1.36345      .   S
    Zr4    O487      1.36345      .   S
    Zr109  O488      1.36344      .   S
    Zr5    O488      1.36344      .   S
    Zr110  O489      1.36345      .   S
    Zr6    O489      1.36345      .   S
    Zr110  O490      1.19987      .   S
    Zr30   O490      1.19987      .   S
    Zr111  O491      1.36347      .   S
    Zr7    O491      1.36347      .   S
    Zr111  O492      1.19986      .   S
    Zr31   O492      1.19986      .   S
    Zr120  O493      1.36351      .   S
    Zr0    O493      1.36351      .   S
    Zr120  O494      1.19988      .   S
    Zr24   O494      1.19988      .   S
    Zr121  O495      1.36352      .   S
    Zr1    O495      1.36352      .   S
    Zr121  O496      1.19989      .   S
    Zr25   O496      1.19989      .   S
    Zr122  O497      1.36351      .   S
    Zr2    O497      1.36351      .   S
    Zr123  O498      1.36349      .   S
    Zr3    O498      1.36349      .   S
    Zr124  O499      1.36351      .   S
    Zr4    O499      1.36351      .   S
    Zr124  O500      1.19987      .   S
    Zr28   O500      1.19987      .   S
    Zr125  O501      1.36351      .   S
    Zr5    O501      1.36351      .   S
    Zr125  O502      1.19989      .   S
    Zr29   O502      1.19989      .   S
    Zr126  O503      1.36350      .   S
    Zr6    O503      1.36350      .   S
    Zr127  O504      1.36350      .   S
    Zr7    O504      1.36350      .   S
    Zr136  O505      1.36438      .   S
    Zr12   O505      1.36438      .   S
    Zr136  O506      1.20016      .   S
    Zr16   O506      1.20016      .   S
    Zr137  O507      1.36438      .   S
    Zr13   O507      1.36438      .   S
    Zr137  O508      1.20020      .   S
    Zr17   O508      1.20020      .   S
    Zr138  O509      1.36439      .   S
    Zr14   O509      1.36439      .   S
    Zr138  O510      1.20021      .   S
    Zr18   O510      1.20021      .   S
    Zr139  O511      1.36440      .   S
    Zr15   O511      1.36440      .   S
    Zr139  O512      1.20068      .   S
    Zr19   O512      1.20068      .   S
    Zr140  O513      1.36454      .   S
    Zr8    O513      1.36454  1_455   S
    Zr140  O514      1.20014      .   S
    Zr20   O514      1.20014      .   S
    Zr141  O515      1.36454      .   S
    Zr9    O515      1.36454  1_455   S
    Zr141  O516      1.20068      .   S
    Zr21   O516      1.20068      .   S
    Zr142  O517      1.36454      .   S
    Zr10   O517      1.36454  1_455   S
    Zr142  O518      1.20022      .   S
    Zr22   O518      1.20022      .   S
    Zr143  O519      1.36454      .   S
    Zr11   O519      1.36454  1_455   S
    Zr143  O520      1.20020      .   S
    Zr23   O520      1.20020      .   S
    Zr152  O521      1.36260      .   S
    Zr12   O521      1.36260      .   S
    Zr153  O522      1.36258      .   S
    Zr13   O522      1.36258      .   S
    Zr154  O523      1.36260      .   S
    Zr14   O523      1.36260      .   S
    Zr155  O524      1.36261      .   S
    Zr15   O524      1.36261      .   S
    Zr156  O525      1.36274  1_655   S
    Zr8    O525      1.36274      .   S
    Zr157  O526      1.36274  1_655   S
    Zr9    O526      1.36274      .   S
    Zr158  O527      1.36535  1_655   S
    Zr10   O527      1.36535      .   S
    Zr159  O528      1.36275  1_655   S
    Zr11   O528      1.36275      .   S
    Zr168  O529      1.36346      .   S
    Zr8    O529      1.36346      .   S
    Zr169  O530      1.36346      .   S
    Zr9    O530      1.36346      .   S
    Zr169  O531      1.19986      .   S
    Zr17   O531      1.19986      .   S
    Zr170  O532      1.19985      .   S
    Zr18   O532      1.19985      .   S
    Zr171  O533      1.36344      .   S
    Zr11   O533      1.36344      .   S
    Zr171  O534      1.19985      .   S
    Zr19   O534      1.19985      .   S
    Zr172  O535      1.36319      .   S
    Zr12   O535      1.36319      .   S
    Zr173  O536      1.36348      .   S
    Zr13   O536      1.36348      .   S
    Zr173  O537      1.19984      .   S
    Zr21   O537      1.19984      .   S
    Zr174  O538      1.36350      .   S
    Zr14   O538      1.36350      .   S
    Zr174  O539      1.19985      .   S
    Zr22   O539      1.19985      .   S
    Zr175  O540      1.36346      .   S
    Zr15   O540      1.36346      .   S
    Zr175  O541      1.19985      .   S
    Zr23   O541      1.19985      .   S
    Zr184  O542      1.36350      .   S
    Zr8    O542      1.36350      .   S
    Zr184  O543      1.19987      .   S
    Zr16   O543      1.19987      .   S
    Zr185  O544      1.36350      .   S
    Zr9    O544      1.36350      .   S
    Zr186  O545      1.36353      .   S
    Zr10   O545      1.36353      .   S
    Zr187  O546      1.36351      .   S
    Zr11   O546      1.36351      .   S
    Zr188  O547      1.36350      .   S
    Zr12   O547      1.36350      .   S
    Zr188  O548      1.19987      .   S
    Zr20   O548      1.19987      .   S
    Zr189  O549      1.36351      .   S
    Zr13   O549      1.36351      .   S
    Zr190  O550      1.36352      .   S
    Zr14   O550      1.36352      .   S
    Zr191  O551      1.36352      .   S
    Zr15   O551      1.36352      .   S
    Zr200  O552      1.36452      .   S
    Zr4    O552      1.36452  1_655   S
    Zr200  O553      1.20019      .   S
    Zr24   O553      1.20019      .   S
    Zr201  O554      1.36452      .   S
    Zr5    O554      1.36452  1_655   S
    Zr201  O555      1.20021      .   S
    Zr25   O555      1.20021      .   S
    Zr202  O556      1.36452      .   S
    Zr6    O556      1.36452  1_655   S
    Zr202  O557      1.20020      .   S
    Zr26   O557      1.20020      .   S
    Zr203  O558      1.36452      .   S
    Zr7    O558      1.36452  1_655   S
    Zr203  O559      1.20021      .   S
    Zr27   O559      1.20021      .   S
    Zr204  O560      1.36438      .   S
    Zr0    O560      1.36438      .   S
    Zr204  O561      1.20019      .   S
    Zr28   O561      1.20019      .   S
    Zr205  O562      1.36437      .   S
    Zr1    O562      1.36437      .   S
    Zr205  O563      1.20021      .   S
    Zr29   O563      1.20021      .   S
    Zr206  O564      1.36437      .   S
    Zr2    O564      1.36437      .   S
    Zr206  O565      1.20019      .   S
    Zr30   O565      1.20019      .   S
    Zr207  O566      1.36437      .   S
    Zr3    O566      1.36437      .   S
    Zr207  O567      1.20015      .   S
    Zr31   O567      1.20015      .   S
    Zr216  O568      1.36279  1_455   S
    Zr4    O568      1.36279      .   S
    Zr217  O569      1.36278  1_455   S
    Zr5    O569      1.36278      .   S
    Zr218  O570      1.36276  1_455   S
    Zr6    O570      1.36276      .   S
    Zr219  O571      1.36277  1_455   S
    Zr7    O571      1.36277      .   S
    Zr220  O572      1.36230      .   S
    Zr0    O572      1.36230      .   S
    Zr221  O573      1.36224      .   S
    Zr1    O573      1.36224      .   S
    Zr222  O574      1.36263      .   S
    Zr2    O574      1.36263      .   S
    Zr223  O575      1.36268      .   S
    Zr3    O575      1.36268      .   S
