# CIF file generated by openbabel 2.4.90, see http://openbabel.sf.net
data_I
_chemical_name_common ''
_cell_length_a 18.423
_cell_length_b 18.43
_cell_length_c 18.43
_cell_angle_alpha 60.187
_cell_angle_beta 60.175
_cell_angle_gamma 60.177
_space_group_name_H-M_alt 'P 1'
_space_group_name_Hall 'P 1'
loop_
    _symmetry_equiv_pos_as_xyz
    x,y,z
loop_
    _atom_site_label
    _atom_site_type_symbol
    _atom_site_fract_x
    _atom_site_fract_y
    _atom_site_fract_z
    _atom_site_occupancy
    Lv0     Lv   0.00001   0.50000   0.99998   1.000
    Lv1     Lv   0.50001   1.00000   0.49999   1.000
    Lv2     Lv   0.50001   0.50000   0.99998   1.000
    Lv3     Lv   0.00001   0.50000   0.49988   1.000
    Lv4     Lv   0.50001   1.00000   0.99998   1.000
    Lv5     Lv   0.00001   1.00000   0.49999   1.000
