# CIF file generated by openbabel 2.4.90, see http://openbabel.sf.net
data_I
_chemical_name_common ''
_cell_length_a 18.423
_cell_length_b 18.43
_cell_length_c 18.43
_cell_angle_alpha 60.187
_cell_angle_beta 60.175
_cell_angle_gamma 60.177
_space_group_name_H-M_alt 'P 1'
_space_group_name_Hall 'P 1'
loop_
    _symmetry_equiv_pos_as_xyz
    x,y,z
loop_
    _atom_site_label
    _atom_site_type_symbol
    _atom_site_fract_x
    _atom_site_fract_y
    _atom_site_fract_z
    _atom_site_occupancy
    C0      C    0.11093   0.38898   0.11098   1.000
    C1      C    0.38910   0.11113   0.38906   1.000
    C2      C    0.11094   0.11098   0.38896   1.000
    C3      C    0.38910   0.38907   0.11110   1.000
    C4      C    0.11109   0.38907   0.38906   1.000
    C5      C    0.38897   0.11099   0.11096   1.000
    C6      C    0.61104   0.88900   0.88901   1.000
    C7      C    0.88892   0.61092   0.61091   1.000
    C8      C    0.88907   0.88902   0.61101   1.000
    C9      C    0.61091   0.61092   0.88886   1.000
    C10     C    0.61091   0.88887   0.61091   1.000
    C11     C    0.88908   0.61102   0.88899   1.000
