# CIF file generated by openbabel 2.4.90, see http://openbabel.sf.net
data_I
_chemical_name_common 'VESTA_phase_1'
_cell_length_a 13.273
_cell_length_b 14.197
_cell_length_c 17.285
_cell_angle_alpha 66.122
_cell_angle_beta 87.262
_cell_angle_gamma 89.829
_space_group_name_H-M_alt 'P 1'
_space_group_name_Hall 'P 1'
loop_
    _symmetry_equiv_pos_as_xyz
    x,y,z
loop_
    _atom_site_label
    _atom_site_type_symbol
    _atom_site_fract_x
    _atom_site_fract_y
    _atom_site_fract_z
    _atom_site_occupancy
    Zn0     Zn   0.26659   0.84362   0.39145   1.000
    Zn1     Zn   0.89783   0.44378   0.29429   1.000
    Zn2     Zn   0.78103   0.58863   0.16452   1.000
    Zn3     Zn   0.40457   0.98435   0.25804   1.000
    Zn4     Zn   0.73360   0.15613   0.60968   1.000
    Zn5     Zn   0.10207   0.55613   0.70608   1.000
    Zn6     Zn   0.22178   0.41128   0.83588   1.000
    Zn7     Zn   0.59557   0.01558   0.74333   1.000
    H8      H    0.08038   0.72211   0.25810   1.000
    H9      H    0.00000   0.81243   0.99806   1.000
    H10     H    0.23417   0.98072   0.06048   1.000
    H11     H    0.16583   0.10041   0.93623   1.000
    H12     H    0.26830   0.03911   0.90387   1.000
    H13     H    0.07641   0.11037   0.80185   1.000
    H14     H    0.15205   0.21515   0.29532   1.000
    H15     H    0.10489   0.29574   0.50874   1.000
    H16     H    0.30020   0.04495   0.52823   1.000
    H17     H    0.20417   0.28380   0.62555   1.000
    H18     H    0.10432   0.18952   0.65340   1.000
    H19     H    0.30311   0.14599   0.74860   1.000
    H20     H    0.56864   0.70051   0.29650   1.000
    H21     H    0.72841   0.47022   0.49437   1.000
    H22     H    0.49212   0.64027   0.55809   1.000
    H23     H    0.70278   0.37245   0.63179   1.000
    H24     H    0.77822   0.48093   0.62297   1.000
    H25     H    0.65050   0.33831   0.78311   1.000
    H26     H    0.82440   0.49641   0.74676   1.000
    H27     H    0.74836   0.47367   0.89058   1.000
    H28     H    0.85433   0.39545   0.89471   1.000
    H29     H    0.79921   0.41661   0.01493   1.000
    H30     H    0.66800   0.20893   0.25655   1.000
    H31     H    0.60356   0.16676   0.03040   1.000
    H32     H    0.92153   0.27718   0.74261   1.000
    H33     H    0.00046   0.18498   0.00000   1.000
    H34     H    0.76798   0.01869   0.94058   1.000
    H35     H    0.83638   0.89770   0.06480   1.000
    H36     H    0.73488   0.96094   0.09635   1.000
    H37     H    0.92554   0.88708   0.19961   1.000
    H38     H    0.84583   0.78381   0.70617   1.000
    H39     H    0.89377   0.70349   0.49268   1.000
    H40     H    0.70018   0.95579   0.47233   1.000
    H41     H    0.79573   0.71652   0.37527   1.000
    H42     H    0.89604   0.81017   0.34816   1.000
    H43     H    0.69831   0.85574   0.25156   1.000
    H44     H    0.43246   0.30092   0.70382   1.000
    H45     H    0.27220   0.52987   0.50554   1.000
    H46     H    0.50770   0.35829   0.44269   1.000
    H47     H    0.29767   0.62648   0.36814   1.000
    H48     H    0.22181   0.51808   0.37738   1.000
    H49     H    0.34936   0.66020   0.21699   1.000
    H50     H    0.17613   0.50130   0.25372   1.000
    H51     H    0.25243   0.52441   0.10961   1.000
    H52     H    0.14613   0.60216   0.10569   1.000
    H53     H    0.20001   0.58291   0.98500   1.000
    H54     H    0.33125   0.79140   0.74371   1.000
    H55     H    0.39683   0.83147   0.97054   1.000
    C56     C    0.22049   0.87388   0.22824   1.000
    C57     C    0.95458   0.67704   0.15649   1.000
    C58     C    0.16144   0.85441   0.16482   1.000
    C59     C    0.09176   0.77250   0.19139   1.000
    C60     C    0.03516   0.75778   0.13078   1.000
    C61     C    0.04920   0.82290   0.04516   1.000
    C62     C    0.12136   0.90293   0.01850   1.000
    C63     C    0.17767   0.91925   0.07849   1.000
    C64     C    0.18686   0.05464   0.89950   1.000
    C65     C    0.15771   0.10796   0.80996   1.000
    C66     C    0.26908   0.04467   0.37613   1.000
    C67     C    0.04302   0.33646   0.35340   1.000
    C68     C    0.23238   0.12325   0.40737   1.000
    C69     C    0.16954   0.20307   0.35950   1.000
    C70     C    0.12252   0.26263   0.39804   1.000
    C71     C    0.14365   0.24838   0.48097   1.000
    C72     C    0.21169   0.17279   0.52591   1.000
    C73     C    0.25323   0.10806   0.48991   1.000
    C74     C    0.18645   0.20045   0.65424   1.000
    C75     C    0.22144   0.14957   0.74230   1.000
    C76     C    0.44334   0.75796   0.39799   1.000
    C77     C    0.71543   0.55755   0.32700   1.000
    C78     C    0.52338   0.67946   0.42458   1.000
    C79     C    0.58098   0.65868   0.36354   1.000
    C80     C    0.65335   0.58202   0.39024   1.000
    C81     C    0.67083   0.52867   0.47600   1.000
    C82     C    0.61307   0.55037   0.53710   1.000
    C83     C    0.53794   0.62484   0.51073   1.000
    C84     C    0.70828   0.43637   0.65209   1.000
    C85     C    0.70611   0.39808   0.74625   1.000
    C86     C    0.76955   0.43609   0.78451   1.000
    C87     C    0.77500   0.40782   0.87691   1.000
    C88     C    0.70742   0.29197   0.01197   1.000
    C89     C    0.75395   0.34791   0.05108   1.000
    C90     C    0.74016   0.31794   0.13907   1.000
    C91     C    0.68068   0.23169   0.18860   1.000
    C92     C    0.63049   0.17840   0.14832   1.000
    C93     C    0.64448   0.20759   0.06090   1.000
    C94     C    0.78031   0.38969   0.17409   1.000
    C95     C    0.55303   0.09714   0.19720   1.000
    C96     C    0.78015   0.12605   0.77294   1.000
    C97     C    0.04939   0.32101   0.84393   1.000
    C98     C    0.84040   0.14503   0.83606   1.000
    C99     C    0.91065   0.22653   0.80931   1.000
    C100    C    0.96838   0.24056   0.86968   1.000
    C101    C    0.95485   0.17506   0.95527   1.000
    C102    C    0.88225   0.09541   0.98213   1.000
    C103    C    0.82484   0.07987   0.92238   1.000
    C104    C    0.81605   0.94413   0.10121   1.000
    C105    C    0.84431   0.89087   0.19101   1.000
    C106    C    0.73075   0.95546   0.62478   1.000
    C107    C    0.95465   0.66211   0.64853   1.000
    C108    C    0.76677   0.87661   0.59363   1.000
    C109    C    0.82875   0.79614   0.64185   1.000
    C110    C    0.87561   0.73634   0.60348   1.000
    C111    C    0.85508   0.75099   0.52035   1.000
    C112    C    0.78779   0.82722   0.47504   1.000
    C113    C    0.74648   0.89219   0.51089   1.000
    C114    C    0.81392   0.79977   0.34673   1.000
    C115    C    0.77989   0.85086   0.25832   1.000
    C116    C    0.55680   0.24174   0.60294   1.000
    C117    C    0.28624   0.44413   0.67292   1.000
    C118    C    0.47691   0.32034   0.57600   1.000
    C119    C    0.41984   0.34207   0.63683   1.000
    C120    C    0.34765   0.41887   0.60983   1.000
    C121    C    0.32971   0.47136   0.52340   1.000
    C122    C    0.38710   0.44883   0.46322   1.000
    C123    C    0.46214   0.37428   0.48988   1.000
    C124    C    0.29186   0.56234   0.34813   1.000
    C125    C    0.29399   0.60024   0.25000   1.000
    C126    C    0.23083   0.56175   0.21589   1.000
    C127    C    0.22547   0.59003   0.12347   1.000
    C128    C    0.29252   0.70676   0.98850   1.000
    C129    C    0.24549   0.65150   0.94908   1.000
    C130    C    0.25899   0.68202   0.86100   1.000
    C131    C    0.31877   0.76820   0.81166   1.000
    C132    C    0.36941   0.82089   0.85230   1.000
    C133    C    0.35563   0.79111   0.93980   1.000
    C134    C    0.21820   0.61081   0.82571   1.000
    C135    C    0.44696   0.90225   0.80359   1.000
    O136    O    0.29341   0.93774   0.20186   1.000
    O137    O    0.19178   0.82294   0.30725   1.000
    O138    O    0.95984   0.59589   0.22419   1.000
    O139    O    0.88034   0.69637   0.10687   1.000
    O140    O    0.12905   0.95905   0.93340   1.000
    O141    O    0.25309   0.95058   0.43047   1.000
    O142    O    0.31051   0.07024   0.30295   1.000
    O143    O    0.97858   0.36521   0.39768   1.000
    O144    O    0.03601   0.36919   0.27360   1.000
    O145    O    0.23980   0.15184   0.60590   1.000
    O146    O    0.45353   0.83477   0.32694   1.000
    O147    O    0.36479   0.74114   0.44913   1.000
    O148    O    0.78651   0.49442   0.35283   1.000
    O149    O    0.69281   0.60455   0.24859   1.000
    O150    O    0.62260   0.50329   0.62234   1.000
    O151    O    0.71553   0.31736   0.92648   1.000
    O152    O    0.78182   0.48577   0.12083   1.000
    O153    O    0.80830   0.35895   0.24922   1.000
    O154    O    0.49715   0.06120   0.15550   1.000
    O155    O    0.53810   0.06763   0.27652   1.000
    O156    O    0.70679   0.06269   0.79964   1.000
    O157    O    0.80846   0.17682   0.69381   1.000
    O158    O    0.04388   0.40278   0.77674   1.000
    O159    O    0.12428   0.30095   0.89297   1.000
    O160    O    0.87530   0.03881   0.06718   1.000
    O161    O    0.74677   0.04945   0.57024   1.000
    O162    O    0.68997   0.93018   0.69818   1.000
    O163    O    0.01940   0.63360   0.60424   1.000
    O164    O    0.96107   0.62920   0.72832   1.000
    O165    O    0.76035   0.84857   0.39474   1.000
    O166    O    0.54640   0.16498   0.67401   1.000
    O167    O    0.63547   0.25853   0.55197   1.000
    O168    O    0.21382   0.50557   0.64750   1.000
    O169    O    0.31110   0.39924   0.75096   1.000
    O170    O    0.37731   0.49515   0.37804   1.000
    O171    O    0.28467   0.68073   0.07409   1.000
    O172    O    0.21492   0.51468   0.87901   1.000
    O173    O    0.19122   0.64185   0.75025   1.000
    O174    O    0.50272   0.93810   0.84546   1.000
    O175    O    0.46199   0.93194   0.72429   1.000
loop_
    _geom_bond_atom_site_label_1
    _geom_bond_atom_site_label_2
    _geom_bond_distance
    _geom_bond_site_symmetry_2
    _ccdc_geom_bond_type
    H33    C101      1.05706  1_454   S
    C88    C89       1.39512      .   S
    C88    C93       1.40234      .   S
    C88    O151      1.37073  1_554   S
    H29    C89       1.08486      .   S
    C62    C61       1.40037      .   S
    C62    C63       1.39889      .   S
    C62    O140      1.35877  1_554   S
    H31    C93       1.08885      .   S
    C61    C60       1.39525      .   S
    C61    H9        1.12283  1_554   S
    C89    C90       1.40629      .   S
    H10    C63       1.08756      .   S
    C93    C92       1.39863      .   S
    H35    C104      1.10537      .   S
    O160   C104      1.44689  1_545   S
    O160   C102      1.35886  1_554   S
    O171   C127      1.43390      .   S
    O171   C128      1.37075  1_554   S
    C63    C58       1.40673      .   S
    H36    C104      1.10259      .   S
    C104   C105      1.49183      .   S
    H52    C127      1.10455      .   S
    O139   C57       1.29251      .   S
    O139   Zn2       1.92940      .   S
    H51    C127      1.10628      .   S
    O152   Zn2       1.89601      .   S
    O152   C94       1.30016      .   S
    C127   C126      1.48647      .   S
    C60    C57       1.48481  1_455   S
    C60    C59       1.39965      .   S
    C90    C94       1.49041      .   S
    C90    C91       1.39575      .   S
    C92    C91       1.40522      .   S
    C92    C95       1.49558      .   S
    O154   C95       1.29655      .   S
    O154   Zn3       2.01894  1_545   S
    C57    O138      1.27174      .   S
    Zn2    O149      1.90675      .   S
    Zn2    Zn1       2.87092      .   S
    C58    C59       1.39708      .   S
    C58    C56       1.49033      .   S
    C94    O153      1.26537      .   S
    C91    H30       1.08923      .   S
    C105   H37       1.09350      .   S
    C105   C115      1.33431      .   S
    C59    H8        1.08645      .   S
    C95    O155      1.26653      .   S
    O136   C56       1.26303      .   S
    O136   Zn3       2.05441      .   S
    C126   C125      1.28839      .   S
    C126   H50       1.09331      .   S
    H49    C125      1.07731      .   S
    O138   Zn1       2.14616      .   S
    C56    O137      1.29831      .   S
    O149   C77       1.29530      .   S
    O153   Zn1       2.07998      .   S
    C125   C124      1.55690      .   S
    H43    C115      1.09360      .   S
    Zn3    O155      2.23908  1_565   S
    Zn3    O142      2.07679  1_565   S
    Zn3    O146      2.09011      .   S
    C115   C114      1.49403      .   S
    O144   Zn1       2.20131  1_455   S
    O144   C67       1.27289      .   S
    Zn1    O148      2.04040      .   S
    Zn1    O143      2.03687      .   S
    H14    C69       1.08824      .   S
    H20    C79       1.08752      .   S
    O142   C66       1.26375      .   S
    O137   Zn0       1.91725      .   S
    O146   C76       1.27138      .   S
    C77    O148      1.26654      .   S
    C77    C80       1.48799      .   S
    C114   H42       1.10312      .   S
    C114   H41       1.10311      .   S
    C114   O165      1.44240      .   S
    C124   H47       1.10125      .   S
    C124   H48       1.10290      .   S
    C124   O170      1.45391      .   S
    C67    O143      1.29319  1_455   S
    C67    C70       1.49134      .   S
    C69    C70       1.40040      .   S
    C69    C68       1.40212      .   S
    C79    C80       1.39629      .   S
    C79    C78       1.39942      .   S
    C66    C68       1.49423      .   S
    C66    O141      1.29555  1_545   S
    O170   C122      1.36053      .   S
    C80    C81       1.39562      .   S
    Zn0    O141      1.89977      .   S
    Zn0    O147      1.93597      .   S
    O165   C112      1.36309      .   S
    C76    C78       1.48550      .   S
    C76    O147      1.29148      .   S
    C70    C71       1.40630      .   S
    C68    C73       1.39530      .   S
    C78    C83       1.39565      .   S
    H46    C123      1.08839      .   S
    C122   C123      1.40247      .   S
    C122   C121      1.39887      .   S
    H40    C113      1.08894      .   S
    C112   C113      1.40089      .   S
    C112   C111      1.39893      .   S
    C81    H21       1.08609      .   S
    C81    C82       1.40811      .   S
    C71    H15       1.08762      .   S
    C71    C72       1.39887      .   S
    C123   C118      1.39460      .   S
    C73    C72       1.40100      .   S
    C73    H16       1.08898      .   S
    H39    C111      1.08761      .   S
    H45    C121      1.08595      .   S
    C83    C82       1.40250      .   S
    C83    H22       1.08841      .   S
    C113   C108      1.39543      .   S
    C111   C110      1.40619      .   S
    C121   C120      1.40553      .   S
    C72    O145      1.36201      .   S
    C82    O150      1.36147      .   S
    O167   C116      1.29108      .   S
    O167   Zn4       1.93493      .   S
    O161   Zn4       1.90054      .   S
    O161   C106      1.29558  1_545   S
    C118   C116      1.48520      .   S
    C118   C119      1.39982      .   S
    C108   C106      1.49386      .   S
    C108   C109      1.40205      .   S
    C116   O166      1.27144      .   S
    C110   C109      1.40029      .   S
    C110   C107      1.49158      .   S
    O163   C107      1.29401  1_455   S
    O163   Zn5       2.03032      .   S
    O145   C74       1.44329      .   S
    Zn4    O157      1.91681      .   S
    C120   C119      1.39617      .   S
    C120   C117      1.48731      .   S
    O150   C84       1.45403      .   S
    H24    C84       1.10291      .   S
    C106   O162      1.26423      .   S
    H17    C74       1.10316      .   S
    H23    C84       1.10115      .   S
    C119   H44       1.08647      .   S
    C109   H38       1.08826      .   S
    O168   C117      1.26618      .   S
    O168   Zn5       2.04423      .   S
    C107   O164      1.27161      .   S
    C84    C85       1.49152      .   S
    H18    C74       1.10312      .   S
    C74    C75       1.49322      .   S
    C117   O169      1.29609      .   S
    O166   Zn7       2.09023      .   S
    O157   C96       1.29845      .   S
    O162   Zn7       2.07675  1_565   S
    Zn5    O164      2.22911  1_455   S
    Zn5    O173      2.07632      .   S
    Zn5    O158      2.14377      .   S
    O175   Zn7       2.24643  1_565   S
    O175   C135      1.26607      .   S
    C75    H19       1.09367      .   S
    C75    C65       1.33468      .   S
    H32    C99       1.08659      .   S
    Zn7    O156      2.06015      .   S
    Zn7    O174      2.01826  1_545   S
    H54    C131      1.08810      .   S
    C85    H25       1.09169      .   S
    C85    C86       1.33502      .   S
    H26    C86       1.09324      .   S
    O173   C134      1.26568      .   S
    O169   Zn6       1.90391      .   S
    C96    O156      1.26342      .   S
    C96    C98       1.49176      .   S
    O158   C97       1.27193      .   S
    C86    C87       1.48630      .   S
    H13    C65       1.09347      .   S
    C135   O174      1.29697      .   S
    C135   C132      1.49651      .   S
    C99    C98       1.39786      .   S
    C99    C100      1.40043      .   S
    C65    C64       1.49165      .   S
    C131   C132      1.40651      .   S
    C131   C130      1.39649      .   S
    C134   C130      1.49054      .   S
    C134   O172      1.30066      .   S
    Zn6    O172      1.89672      .   S
    Zn6    O159      1.93415      .   S
    C98    C103      1.40675      .   S
    C97    C100      1.48631  1_455   S
    C97    O159      1.29271      .   S
    C132   C133      1.39857      .   S
    C130   C129      1.40645      .   S
    C100   C101      1.39550      .   S
    C87    H27       1.10633      .   S
    C87    H28       1.10458      .   S
    C87    O151      1.43423      .   S
    C64    H12       1.10259      .   S
    C64    O140      1.44679  1_545   S
    C64    H11       1.10421      .   S
    C103   H34       1.08755      .   S
    C103   C102      1.39882      .   S
    C133   H55       1.08896      .   S
    C133   C128      1.40244      .   S
    C129   H53       1.08468      .   S
    C129   C128      1.39488      .   S
    C101   C102      1.40062      .   S
