# CIF file generated by openbabel 2.4.90, see http://openbabel.sf.net
data_I
_chemical_name_common ''
_cell_length_a 13.4
_cell_length_b 13.401
_cell_length_c 13.401
_cell_angle_alpha 59.977
_cell_angle_beta 59.995
_cell_angle_gamma 59.995
_space_group_name_H-M_alt 'P 1'
_space_group_name_Hall 'P 1'
loop_
    _symmetry_equiv_pos_as_xyz
    x,y,z
loop_
    _atom_site_label
    _atom_site_type_symbol
    _atom_site_fract_x
    _atom_site_fract_y
    _atom_site_fract_z
    _atom_site_occupancy
    C0      C    0.49997   0.50000   0.50000   1.000
    C1      C    0.99999   0.00002   0.00000   1.000
    C2      C    0.99998   0.50000   0.60000   1.000
    C3      C    0.99999   0.50000   0.50000   1.000
    C4      C    0.12497   0.62493   0.62492   1.000
    C5      C    0.87498   0.37508   0.37507   1.000
    C6      C    0.50861   0.34660   0.79840   1.000
    C7      C    0.84634   0.00000   0.34666   1.000
    C8      C    0.29820   0.34672   0.00000   1.000
    C9      C    0.84627   0.79869   0.34642   1.000
    C10     C    0.50860   0.79841   0.34659   1.000
    C11     C    0.84627   0.34643   0.79867   1.000
    C12     C    0.29819   0.00000   0.34671   1.000
    C13     C    0.84633   0.34667   0.00000   1.000
    C14     C    0.50872   0.34657   0.34657   1.000
    C15     C    0.84666   0.79818   0.00000   1.000
    C16     C    0.29848   0.34646   0.34647   1.000
    C17     C    0.84667   0.00000   0.79816   1.000
    C18     C    0.15329   0.99142   0.20183   1.000
    C19     C    0.49123   0.65343   0.65342   1.000
    C20     C    0.15329   0.20183   0.99141   1.000
    C21     C    0.70147   0.65354   0.65352   1.000
    C22     C    0.70176   0.99129   0.65328   1.000
    C23     C    0.15368   0.65358   0.20132   1.000
    C24     C    0.49135   0.20159   0.65340   1.000
    C25     C    0.15362   0.65333   0.99115   1.000
    C26     C    0.15360   0.99115   0.65333   1.000
    C27     C    0.70175   0.65328   0.99128   1.000
    C28     C    0.15368   0.20132   0.65350   1.000
    C29     C    0.49134   0.65340   0.20100   1.000
    C30     C    0.41223   0.38948   0.80880   1.000
    C31     C    0.88931   0.91242   0.38949   1.000
    C32     C    0.30876   0.38955   0.91230   1.000
    C33     C    0.88926   0.80905   0.38940   1.000
    C34     C    0.41222   0.80888   0.38948   1.000
    C35     C    0.88927   0.38940   0.80905   1.000
    C36     C    0.30876   0.91231   0.38954   1.000
    C37     C    0.88930   0.38950   0.91240   1.000
    C38     C    0.41231   0.38947   0.38946   1.000
    C39     C    0.88952   0.80873   0.91218   1.000
    C40     C    0.30892   0.38942   0.38942   1.000
    C41     C    0.88952   0.91219   0.80871   1.000
    C42     C    0.11043   0.08781   0.19128   1.000
    C43     C    0.58764   0.61053   0.61053   1.000
    C44     C    0.11043   0.19128   0.08781   1.000
    C45     C    0.69104   0.61058   0.61057   1.000
    C46     C    0.69119   0.08770   0.61045   1.000
    C47     C    0.11068   0.61061   0.19095   1.000
    C48     C    0.58773   0.19112   0.61051   1.000
    C49     C    0.11065   0.61050   0.08758   1.000
    C50     C    0.11064   0.08758   0.61050   1.000
    C51     C    0.69119   0.61045   0.08769   1.000
    C52     C    0.11069   0.19095   0.61059   1.000
    C53     C    0.58772   0.61052   0.19112   1.000
    C54     C    0.37426   0.45765   0.71032   1.000
    C55     C    0.95762   0.87429   0.45774   1.000
    C56     C    0.21027   0.45771   0.87420   1.000
    C57     C    0.95758   0.71043   0.45758   1.000
    C58     C    0.37426   0.71032   0.45763   1.000
    C59     C    0.95758   0.45759   0.71042   1.000
    C60     C    0.21027   0.87425   0.45771   1.000
    C61     C    0.95762   0.45775   0.87429   1.000
    C62     C    0.37424   0.45772   0.45773   1.000
    C63     C    0.95774   0.71022   0.87420   1.000
    C64     C    0.21035   0.45766   0.45766   1.000
    C65     C    0.95774   0.87420   0.71021   1.000
    C66     C    0.04221   0.12580   0.28978   1.000
    C67     C    0.62571   0.54228   0.54226   1.000
    C68     C    0.04221   0.28979   0.12579   1.000
    C69     C    0.78960   0.54235   0.54233   1.000
    C70     C    0.78968   0.12576   0.54228   1.000
    C71     C    0.04237   0.54241   0.28957   1.000
    C72     C    0.62569   0.28968   0.54236   1.000
    C73     C    0.04233   0.54226   0.12570   1.000
    C74     C    0.04233   0.12571   0.54225   1.000
    C75     C    0.78968   0.54229   0.12575   1.000
    C76     C    0.04237   0.28958   0.54241   1.000
    C77     C    0.62569   0.54236   0.28967   1.000
    C78     C    0.25153   0.49835   0.75150   1.000
    C79     C    0.99839   0.75155   0.49837   1.000
    C80     C    0.25153   0.75151   0.49836   1.000
    C81     C    0.99840   0.49837   0.75150   1.000
    C82     C    0.25151   0.49845   0.49842   1.000
    C83     C    0.99841   0.75146   0.75146   1.000
    C84     C    0.00154   0.24854   0.24853   1.000
    C85     C    0.74844   0.50156   0.50157   1.000
    C86     C    0.74843   0.24850   0.50163   1.000
    C87     C    0.00156   0.50164   0.24845   1.000
    C88     C    0.00156   0.24846   0.50162   1.000
    C89     C    0.74843   0.50165   0.24849   1.000
    O90     O    0.86809   0.80345   0.95609   1.000
    O91     O    0.86782   0.36809   0.95620   1.000
    O92     O    0.30348   0.36814   0.95615   1.000
    O93     O    0.07649   0.57638   0.10664   1.000
    O94     O    0.11066   0.61056   0.13926   1.000
    O95     O    0.13213   0.63192   0.03937   1.000
    O96     O    0.74043   0.57637   0.10672   1.000
    O97     O    0.63946   0.61049   0.13941   1.000
    O98     O    0.69647   0.63187   0.03949   1.000
    O99     O    0.07632   0.24053   0.10680   1.000
    O100    O    0.11043   0.13954   0.13955   1.000
    O101    O    0.13186   0.19655   0.03961   1.000
    O102    O    0.02194   0.52195   0.18708   1.000
    O103    O    0.76905   0.52197   0.18712   1.000
    O104    O    0.02188   0.26916   0.18716   1.000
    O105    O    0.13218   0.63209   0.19613   1.000
    O106    O    0.07653   0.57651   0.24026   1.000
    O107    O    0.53953   0.63196   0.19606   1.000
    O108    O    0.60671   0.57644   0.24040   1.000
    O109    O    0.13186   0.03961   0.19656   1.000
    O110    O    0.07632   0.10681   0.24053   1.000
    O111    O    0.02196   0.52202   0.26901   1.000
    O112    O    0.93827   0.43836   0.31176   1.000
    O113    O    0.68706   0.52200   0.26908   1.000
    O114    O    0.81170   0.43836   0.31178   1.000
    O115    O    0.02188   0.18717   0.26916   1.000
    O116    O    0.93826   0.31181   0.31180   1.000
    O117    O    0.56283   0.52118   0.39483   1.000
    O118    O    0.86777   0.80387   0.36791   1.000
    O119    O    0.30370   0.36794   0.36794   1.000
    O120    O    0.46051   0.36802   0.36801   1.000
    O121    O    0.46041   0.80365   0.36804   1.000
    O122    O    0.86783   0.95621   0.36807   1.000
    O123    O    0.30347   0.95615   0.36813   1.000
    O124    O    0.81171   0.43832   0.43832   1.000
    O125    O    0.93827   0.31177   0.43834   1.000
    O126    O    0.81170   0.31179   0.43835   1.000
    O127    O    0.88929   0.86074   0.38944   1.000
    O128    O    0.92342   0.75974   0.42349   1.000
    O129    O    0.36061   0.38945   0.38944   1.000
    O130    O    0.25963   0.42354   0.42354   1.000
    O131    O    0.39328   0.42360   0.42359   1.000
    O132    O    0.36049   0.86060   0.38951   1.000
    O133    O    0.39324   0.75960   0.42356   1.000
    O134    O    0.92347   0.89336   0.42361   1.000
    O135    O    0.25951   0.89328   0.42362   1.000
    O136    O    0.97799   0.73099   0.47797   1.000
    O137    O    0.31289   0.73092   0.47800   1.000
    O138    O    0.43712   0.60516   0.47881   1.000
    O139    O    0.23093   0.47805   0.47804   1.000
    O140    O    0.10517   0.47883   0.47883   1.000
    O141    O    0.23090   0.81288   0.47804   1.000
    O142    O    0.31288   0.47808   0.47807   1.000
    O143    O    0.43711   0.47886   0.47887   1.000
    O144    O    0.97801   0.81292   0.47805   1.000
    O145    O    0.18825   0.68822   0.56164   1.000
    O146    O    0.06168   0.68824   0.56165   1.000
    O147    O    0.18824   0.56169   0.56167   1.000
    O148    O    0.99999   0.50000   0.55000   1.000
    O149    O    0.56284   0.52114   0.52113   1.000
    O150    O    0.56283   0.39484   0.52118   1.000
    O151    O    0.43712   0.47882   0.60516   1.000
    O152    O    0.68708   0.52192   0.52192   1.000
    O153    O    0.76902   0.52195   0.52195   1.000
    O154    O    0.02195   0.18709   0.52194   1.000
    O155    O    0.02197   0.26902   0.52201   1.000
    O156    O    0.76905   0.18713   0.52196   1.000
    O157    O    0.68706   0.26909   0.52200   1.000
    O158    O    0.07648   0.10665   0.57638   1.000
    O159    O    0.60668   0.57641   0.57639   1.000
    O160    O    0.74044   0.10673   0.57637   1.000
    O161    O    0.74032   0.57646   0.57645   1.000
    O162    O    0.60671   0.24040   0.57644   1.000
    O163    O    0.07653   0.24026   0.57650   1.000
    O164    O    0.63946   0.13941   0.61048   1.000
    O165    O    0.69648   0.03949   0.63187   1.000
    O166    O    0.11066   0.13927   0.61055   1.000
    O167    O    0.13212   0.03937   0.63192   1.000
    O168    O    0.53954   0.19636   0.63196   1.000
    O169    O    0.63934   0.61056   0.61055   1.000
    O170    O    0.53944   0.63198   0.63198   1.000
    O171    O    0.69625   0.63206   0.63205   1.000
    O172    O    0.13218   0.19613   0.63205   1.000
    O173    O    0.06169   0.68819   0.68819   1.000
    O174    O    0.06168   0.56165   0.68821   1.000
    O175    O    0.18825   0.56164   0.68821   1.000
    O176    O    0.97808   0.81283   0.73084   1.000
    O177    O    0.92363   0.89320   0.75946   1.000
    O178    O    0.31289   0.47800   0.73091   1.000
    O179    O    0.39324   0.42356   0.75956   1.000
    O180    O    0.97799   0.47798   0.73096   1.000
    O181    O    0.92343   0.42349   0.75974   1.000
    O182    O    0.97878   0.47880   0.65521   1.000
    O183    O    0.97808   0.73084   0.81283   1.000
    O184    O    0.97801   0.47806   0.81289   1.000
    O185    O    0.23090   0.47803   0.81285   1.000
    O186    O    0.86809   0.95610   0.80344   1.000
    O187    O    0.46042   0.36804   0.80360   1.000
    O188    O    0.86777   0.36791   0.80386   1.000
    O189    O    0.88952   0.86046   0.86045   1.000
    O190    O    0.36050   0.38951   0.86055   1.000
    O191    O    0.88929   0.38945   0.86073   1.000
    O192    O    0.25952   0.42363   0.89325   1.000
    O193    O    0.92363   0.75947   0.89319   1.000
    O194    O    0.92346   0.42362   0.89335   1.000
loop_
    _geom_bond_atom_site_label_1
    _geom_bond_atom_site_label_2
    _geom_bond_distance
    _geom_bond_site_symmetry_2
    _ccdc_geom_bond_type
    C15    O90       0.49335  1_554   S
    C39    O90       0.49335      .   S
    C13    O91       0.50480  1_554   S
    C37    O91       0.50480      .   S
    C8     O92       0.49259  1_554   S
    C32    O92       0.49259      .   S
    C49    O93       0.67780      .   S
    C73    O93       0.67780      .   S
    C49    O94       0.69308      .   S
    C47    O94       0.69308      .   S
    C49    O95       0.54199      .   S
    C25    O95       0.54199  1_556   S
    C51    O96       0.67780      .   S
    C75    O96       0.67780      .   S
    C51    O97       0.69307      .   S
    C53    O97       0.69307      .   S
    C51    O98       0.54199      .   S
    C27    O98       0.54199  1_556   S
    C44    O99       0.67778      .   S
    C68    O99       0.67778      .   S
    C44    O100      0.69305      .   S
    C42    O100      0.69305      .   S
    C44    O101      0.54201      .   S
    C20    O101      0.54201  1_556   S
    C73    O102      0.67143      .   S
    C87    O102      0.67143      .   S
    C75    O103      0.67137      .   S
    C89    O103      0.67137      .   S
    C68    O104      0.67137      .   S
    C84    O104      0.67137      .   S
    C47    O105      0.54198      .   S
    C23    O105      0.54198      .   S
    C47    O106      0.67781      .   S
    C71    O106      0.67781      .   S
    C53    O107      0.54280      .   S
    C29    O107      0.54280      .   S
    C53    O108      0.67776      .   S
    C77    O108      0.67776      .   S
    C42    O109      0.54198      .   S
    C18    O109      0.54198  1_565   S
    C42    O110      0.67776      .   S
    C66    O110      0.67776      .   S
    C87    O111      0.67140      .   S
    C71    O111      0.67140      .   S
    C87    O112      1.19908  1_455   S
    C5     O112      1.19908      .   S
    C89    O113      0.67140      .   S
    C77    O113      0.67140      .   S
    C89    O114      1.19911      .   S
    C5     O114      1.19911      .   S
    C84    O115      0.67138      .   S
    C66    O115      0.67138      .   S
    C84    O116      1.19917  1_455   S
    C5     O116      1.19917      .   S
    C77    O117      1.19490      .   S
    C0     O117      1.19490      .   S
    C9     O118      0.54199      .   S
    C33    O118      0.54199      .   S
    C16    O119      0.54198      .   S
    C40    O119      0.54198      .   S
    C14    O120      0.54198      .   S
    C38    O120      0.54198      .   S
    C10    O121      0.54198      .   S
    C34    O121      0.54198      .   S
    C7     O122      0.50471  1_545   S
    C31    O122      0.50471      .   S
    C12    O123      0.49254  1_545   S
    C36    O123      0.49254      .   S
    C5     O124      1.19874      .   S
    C85    O124      1.19874      .   S
    C5     O125      1.19907      .   S
    C88    O125      1.19907  1_455   S
    C5     O126      1.19910      .   S
    C86    O126      1.19910      .   S
    C33    O127      0.69307      .   S
    C31    O127      0.69307      .   S
    C33    O128      0.67782      .   S
    C57    O128      0.67782      .   S
    C40    O129      0.69304      .   S
    C38    O129      0.69304      .   S
    C40    O130      0.67781      .   S
    C64    O130      0.67781      .   S
    C38    O131      0.67782      .   S
    C62    O131      0.67782      .   S
    C34    O132      0.69306      .   S
    C36    O132      0.69306      .   S
    C34    O133      0.67780      .   S
    C58    O133      0.67780      .   S
    C31    O134      0.67776      .   S
    C55    O134      0.67776      .   S
    C36    O135      0.67778      .   S
    C60    O135      0.67778      .   S
    C57    O136      0.67143      .   S
    C79    O136      0.67143      .   S
    C58    O137      0.67140      .   S
    C80    O137      0.67140      .   S
    C58    O138      1.19486      .   S
    C0     O138      1.19486      .   S
    C64    O139      0.67138      .   S
    C82    O139      0.67138      .   S
    C64    O140      1.19505      .   S
    C3     O140      1.19505  1_655   S
    C60    O141      0.67139      .   S
    C80    O141      0.67139      .   S
    C62    O142      0.67138      .   S
    C82    O142      0.67138      .   S
    C62    O143      1.19488      .   S
    C0     O143      1.19488      .   S
    C55    O144      0.67138      .   S
    C79    O144      0.67138      .   S
    C80    O145      1.19910      .   S
    C4     O145      1.19910      .   S
    C79    O146      1.19906  1_655   S
    C4     O146      1.19906      .   S
    C82    O147      1.19874      .   S
    C4     O147      1.19874      .   S
    C3     O148      0.67003      .   S
    C2     O148      0.67003      .   S
    C0     O149      1.19484      .   S
    C67    O149      1.19484      .   S
    C0     O150      1.19486      .   S
    C72    O150      1.19486      .   S
    C0     O151      1.19485      .   S
    C54    O151      1.19485      .   S
    C85    O152      0.67138      .   S
    C67    O152      0.67138      .   S
    C85    O153      0.67138      .   S
    C69    O153      0.67138      .   S
    C88    O154      0.67138      .   S
    C74    O154      0.67138      .   S
    C88    O155      0.67143      .   S
    C76    O155      0.67143      .   S
    C86    O156      0.67139      .   S
    C70    O156      0.67139      .   S
    C86    O157      0.67140      .   S
    C72    O157      0.67140      .   S
    C74    O158      0.67774      .   S
    C50    O158      0.67774      .   S
    C67    O159      0.67782      .   S
    C43    O159      0.67782      .   S
    C70    O160      0.67779      .   S
    C46    O160      0.67779      .   S
    C69    O161      0.67781      .   S
    C45    O161      0.67781      .   S
    C72    O162      0.67780      .   S
    C48    O162      0.67780      .   S
    C76    O163      0.67781      .   S
    C52    O163      0.67781      .   S
    C46    O164      0.69306      .   S
    C48    O164      0.69306      .   S
    C46    O165      0.54198      .   S
    C22    O165      0.54198  1_565   S
    C50    O166      0.69308      .   S
    C52    O166      0.69308      .   S
    C50    O167      0.54199      .   S
    C26    O167      0.54199  1_565   S
    C48    O168      0.54198      .   S
    C24    O168      0.54198      .   S
    C43    O169      0.69304      .   S
    C45    O169      0.69304      .   S
    C43    O170      0.54198      .   S
    C19    O170      0.54198      .   S
    C45    O171      0.54199      .   S
    C21    O171      0.54199      .   S
    C52    O172      0.54158      .   S
    C28    O172      0.54158      .   S
    C4     O173      1.19917      .   S
    C83    O173      1.19917  1_655   S
    C4     O174      1.19909      .   S
    C81    O174      1.19909  1_655   S
    C4     O175      1.19910      .   S
    C78    O175      1.19910      .   S
    C65    O176      0.67139      .   S
    C83    O176      0.67139      .   S
    C65    O177      0.67776      .   S
    C41    O177      0.67776      .   S
    C54    O178      0.67140      .   S
    C78    O178      0.67140      .   S
    C54    O179      0.67738      .   S
    C30    O179      0.67738      .   S
    C59    O180      0.67117      .   S
    C81    O180      0.67117      .   S
    C59    O181      0.67783      .   S
    C35    O181      0.67783      .   S
    C59    O182      0.60745      .   S
    C2     O182      0.60745      .   S
    C83    O183      0.67137      .   S
    C63    O183      0.67137      .   S
    C81    O184      0.67165      .   S
    C61    O184      0.67165      .   S
    C78    O185      0.67115      .   S
    C56    O185      0.67115      .   S
    C17    O186      0.49327  1_545   S
    C41    O186      0.49327      .   S
    C6     O187      0.54208      .   S
    C30    O187      0.54208      .   S
    C11    O188      0.54202      .   S
    C35    O188      0.54202      .   S
    C41    O189      0.69305      .   S
    C39    O189      0.69305      .   S
    C30    O190      0.69331      .   S
    C32    O190      0.69331      .   S
    C35    O191      0.69295      .   S
    C37    O191      0.69295      .   S
    C56    O192      0.67794      .   S
    C32    O192      0.67794      .   S
    C63    O193      0.67778      .   S
    C39    O193      0.67778      .   S
    C61    O194      0.67782      .   S
    C37    O194      0.67782      .   S
