# CIF file generated by openbabel 2.4.90, see http://openbabel.sf.net
data_I
_chemical_name_common ''
_cell_length_a 13.4
_cell_length_b 13.401
_cell_length_c 13.401
_cell_angle_alpha 59.977
_cell_angle_beta 59.995
_cell_angle_gamma 59.995
_space_group_name_H-M_alt 'P 1'
_space_group_name_Hall 'P 1'
loop_
    _symmetry_equiv_pos_as_xyz
    x,y,z
loop_
    _atom_site_label
    _atom_site_type_symbol
    _atom_site_fract_x
    _atom_site_fract_y
    _atom_site_fract_z
    _atom_site_occupancy
    Zr0     Zr   0.49997   0.50000   0.50000   1.000
    Zr1     Zr   0.99999   0.00002   0.00000   1.000
    Zr2     Zr   0.99998   0.50000   0.60000   1.000
    Zr3     Zr   0.99999   0.50000   0.50000   1.000
    Zr4     Zr   0.12497   0.62493   0.62492   1.000
    Zr5     Zr   0.87498   0.37508   0.37507   1.000
    Zr6     Zr   0.50861   0.34660   0.79840   1.000
    Zr7     Zr   0.29820   0.34672   0.00000   1.000
    Zr8     Zr   0.50860   0.79841   0.34659   1.000
    Zr9     Zr   0.84627   0.34643   0.79867   1.000
    Zr10    Zr   0.29819   0.00000   0.34671   1.000
    Zr11    Zr   0.84633   0.34667   0.00000   1.000
    Zr12    Zr   0.50872   0.34657   0.34657   1.000
    Zr13    Zr   0.29848   0.34646   0.34647   1.000
    Zr14    Zr   0.49123   0.65343   0.65342   1.000
    Zr15    Zr   0.70147   0.65354   0.65352   1.000
    Zr16    Zr   0.70176   0.99129   0.65328   1.000
    Zr17    Zr   0.49135   0.20159   0.65340   1.000
    Zr18    Zr   0.70175   0.65328   0.99128   1.000
    Zr19    Zr   0.49134   0.65340   0.20100   1.000
    Zr20    Zr   0.41223   0.38948   0.80880   1.000
    Zr21    Zr   0.30876   0.38955   0.91230   1.000
    Zr22    Zr   0.41222   0.80888   0.38948   1.000
    Zr23    Zr   0.88927   0.38940   0.80905   1.000
    Zr24    Zr   0.30876   0.91231   0.38954   1.000
    Zr25    Zr   0.88930   0.38950   0.91240   1.000
    Zr26    Zr   0.41231   0.38947   0.38946   1.000
    Zr27    Zr   0.30892   0.38942   0.38942   1.000
    Zr28    Zr   0.58764   0.61053   0.61053   1.000
    Zr29    Zr   0.69104   0.61058   0.61057   1.000
    Zr30    Zr   0.69119   0.08770   0.61045   1.000
    Zr31    Zr   0.58773   0.19112   0.61051   1.000
    Zr32    Zr   0.69119   0.61045   0.08769   1.000
    Zr33    Zr   0.58772   0.61052   0.19112   1.000
    Zr34    Zr   0.37426   0.45765   0.71032   1.000
    Zr35    Zr   0.21027   0.45771   0.87420   1.000
    Zr36    Zr   0.37426   0.71032   0.45763   1.000
    Zr37    Zr   0.95758   0.45759   0.71042   1.000
    Zr38    Zr   0.21027   0.87425   0.45771   1.000
    Zr39    Zr   0.95762   0.45775   0.87429   1.000
    Zr40    Zr   0.37424   0.45772   0.45773   1.000
    Zr41    Zr   0.21035   0.45766   0.45766   1.000
    Zr42    Zr   0.62571   0.54228   0.54226   1.000
    Zr43    Zr   0.78960   0.54235   0.54233   1.000
    Zr44    Zr   0.78968   0.12576   0.54228   1.000
    Zr45    Zr   0.62569   0.28968   0.54236   1.000
    Zr46    Zr   0.78968   0.54229   0.12575   1.000
    Zr47    Zr   0.62569   0.54236   0.28967   1.000
    Zr48    Zr   0.25153   0.49835   0.75150   1.000
    Zr49    Zr   0.25153   0.75151   0.49836   1.000
    Zr50    Zr   0.99840   0.49837   0.75150   1.000
    Zr51    Zr   0.25151   0.49845   0.49842   1.000
    Zr52    Zr   0.74844   0.50156   0.50157   1.000
    Zr53    Zr   0.74843   0.24850   0.50163   1.000
    Zr54    Zr   0.74843   0.50165   0.24849   1.000
    O55     O    0.86782   0.36809   0.95620   1.000
    O56     O    0.30348   0.36814   0.95615   1.000
    O57     O    0.74043   0.57637   0.10672   1.000
    O58     O    0.63946   0.61049   0.13941   1.000
    O59     O    0.69647   0.63187   0.03949   1.000
    O60     O    0.76905   0.52197   0.18712   1.000
    O61     O    0.53953   0.63196   0.19606   1.000
    O62     O    0.60671   0.57644   0.24040   1.000
    O63     O    0.68706   0.52200   0.26908   1.000
    O64     O    0.81170   0.43836   0.31178   1.000
    O65     O    0.56283   0.52118   0.39483   1.000
    O66     O    0.30370   0.36794   0.36794   1.000
    O67     O    0.46051   0.36802   0.36801   1.000
    O68     O    0.46041   0.80365   0.36804   1.000
    O69     O    0.30347   0.95615   0.36813   1.000
    O70     O    0.81171   0.43832   0.43832   1.000
    O71     O    0.81170   0.31179   0.43835   1.000
    O72     O    0.36061   0.38945   0.38944   1.000
    O73     O    0.25963   0.42354   0.42354   1.000
    O74     O    0.39328   0.42360   0.42359   1.000
    O75     O    0.36049   0.86060   0.38951   1.000
    O76     O    0.39324   0.75960   0.42356   1.000
    O77     O    0.25951   0.89328   0.42362   1.000
    O78     O    0.31289   0.73092   0.47800   1.000
    O79     O    0.43712   0.60516   0.47881   1.000
    O80     O    0.23093   0.47805   0.47804   1.000
    O81     O    0.10517   0.47883   0.47883   1.000
    O82     O    0.23090   0.81288   0.47804   1.000
    O83     O    0.31288   0.47808   0.47807   1.000
    O84     O    0.43711   0.47886   0.47887   1.000
    O85     O    0.18825   0.68822   0.56164   1.000
    O86     O    0.18824   0.56169   0.56167   1.000
    O87     O    0.99999   0.50000   0.55000   1.000
    O88     O    0.56284   0.52114   0.52113   1.000
    O89     O    0.56283   0.39484   0.52118   1.000
    O90     O    0.43712   0.47882   0.60516   1.000
    O91     O    0.68708   0.52192   0.52192   1.000
    O92     O    0.76902   0.52195   0.52195   1.000
    O93     O    0.76905   0.18713   0.52196   1.000
    O94     O    0.68706   0.26909   0.52200   1.000
    O95     O    0.60668   0.57641   0.57639   1.000
    O96     O    0.74044   0.10673   0.57637   1.000
    O97     O    0.74032   0.57646   0.57645   1.000
    O98     O    0.60671   0.24040   0.57644   1.000
    O99     O    0.63946   0.13941   0.61048   1.000
    O100    O    0.69648   0.03949   0.63187   1.000
    O101    O    0.53954   0.19636   0.63196   1.000
    O102    O    0.63934   0.61056   0.61055   1.000
    O103    O    0.53944   0.63198   0.63198   1.000
    O104    O    0.69625   0.63206   0.63205   1.000
    O105    O    0.06168   0.56165   0.68821   1.000
    O106    O    0.18825   0.56164   0.68821   1.000
    O107    O    0.31289   0.47800   0.73091   1.000
    O108    O    0.39324   0.42356   0.75956   1.000
    O109    O    0.97799   0.47798   0.73096   1.000
    O110    O    0.92343   0.42349   0.75974   1.000
    O111    O    0.97878   0.47880   0.65521   1.000
    O112    O    0.97801   0.47806   0.81289   1.000
    O113    O    0.23090   0.47803   0.81285   1.000
    O114    O    0.46042   0.36804   0.80360   1.000
    O115    O    0.86777   0.36791   0.80386   1.000
    O116    O    0.36050   0.38951   0.86055   1.000
    O117    O    0.88929   0.38945   0.86073   1.000
    O118    O    0.25952   0.42363   0.89325   1.000
    O119    O    0.92346   0.42362   0.89335   1.000
    N120    N    0.91232   0.83643   0.83642   1.000
    O121    O    0.98701   0.76231   0.76230   1.000
    N122    N    0.08763   0.16235   0.16235   1.000
    O123    O    0.01295   0.23708   0.23707   1.000
    N124    N    0.08784   0.16211   0.58774   1.000
    O125    O    0.01306   0.23694   0.51304   1.000
    N126    N    0.08784   0.58776   0.16210   1.000
    O127    O    0.01305   0.51306   0.23693   1.000
    N128    N    0.91211   0.83663   0.41224   1.000
    O129    O    0.98690   0.76244   0.48694   1.000
loop_
    _geom_bond_atom_site_label_1
    _geom_bond_atom_site_label_2
    _geom_bond_distance
    _geom_bond_site_symmetry_2
    _ccdc_geom_bond_type
    Zr11   O55       0.50480  1_554   S
    Zr25   O55       0.50480      .   S
    Zr7    O56       0.49259  1_554   S
    Zr21   O56       0.49259      .   S
    Zr32   O57       0.67780      .   S
    Zr46   O57       0.67780      .   S
    Zr32   O58       0.69307      .   S
    Zr33   O58       0.69307      .   S
    Zr32   O59       0.54199      .   S
    Zr18   O59       0.54199  1_556   S
    Zr46   O60       0.67137      .   S
    Zr54   O60       0.67137      .   S
    Zr33   O61       0.54280      .   S
    Zr19   O61       0.54280      .   S
    Zr33   O62       0.67776      .   S
    Zr47   O62       0.67776      .   S
    Zr54   O63       0.67140      .   S
    Zr47   O63       0.67140      .   S
    Zr54   O64       1.19911      .   S
    Zr5    O64       1.19911      .   S
    Zr47   O65       1.19490      .   S
    Zr0    O65       1.19490      .   S
    Zr13   O66       0.54198      .   S
    Zr27   O66       0.54198      .   S
    Zr12   O67       0.54198      .   S
    Zr26   O67       0.54198      .   S
    Zr8    O68       0.54198      .   S
    Zr22   O68       0.54198      .   S
    Zr10   O69       0.49254  1_545   S
    Zr24   O69       0.49254      .   S
    Zr5    O70       1.19874      .   S
    Zr52   O70       1.19874      .   S
    Zr5    O71       1.19910      .   S
    Zr53   O71       1.19910      .   S
    Zr27   O72       0.69304      .   S
    Zr26   O72       0.69304      .   S
    Zr27   O73       0.67781      .   S
    Zr41   O73       0.67781      .   S
    Zr26   O74       0.67782      .   S
    Zr40   O74       0.67782      .   S
    Zr22   O75       0.69306      .   S
    Zr24   O75       0.69306      .   S
    Zr22   O76       0.67780      .   S
    Zr36   O76       0.67780      .   S
    Zr24   O77       0.67778      .   S
    Zr38   O77       0.67778      .   S
    Zr36   O78       0.67140      .   S
    Zr49   O78       0.67140      .   S
    Zr36   O79       1.19486      .   S
    Zr0    O79       1.19486      .   S
    Zr41   O80       0.67138      .   S
    Zr51   O80       0.67138      .   S
    Zr41   O81       1.19505      .   S
    Zr3    O81       1.19505  1_655   S
    Zr38   O82       0.67139      .   S
    Zr49   O82       0.67139      .   S
    Zr40   O83       0.67138      .   S
    Zr51   O83       0.67138      .   S
    Zr40   O84       1.19488      .   S
    Zr0    O84       1.19488      .   S
    Zr49   O85       1.19910      .   S
    Zr4    O85       1.19910      .   S
    Zr51   O86       1.19874      .   S
    Zr4    O86       1.19874      .   S
    Zr3    O87       0.67003      .   S
    Zr2    O87       0.67003      .   S
    Zr0    O88       1.19484      .   S
    Zr42   O88       1.19484      .   S
    Zr0    O89       1.19486      .   S
    Zr45   O89       1.19486      .   S
    Zr0    O90       1.19485      .   S
    Zr34   O90       1.19485      .   S
    Zr52   O91       0.67138      .   S
    Zr42   O91       0.67138      .   S
    Zr52   O92       0.67138      .   S
    Zr43   O92       0.67138      .   S
    Zr53   O93       0.67139      .   S
    Zr44   O93       0.67139      .   S
    Zr53   O94       0.67140      .   S
    Zr45   O94       0.67140      .   S
    Zr42   O95       0.67782      .   S
    Zr28   O95       0.67782      .   S
    Zr44   O96       0.67779      .   S
    Zr30   O96       0.67779      .   S
    Zr43   O97       0.67781      .   S
    Zr29   O97       0.67781      .   S
    Zr45   O98       0.67780      .   S
    Zr31   O98       0.67780      .   S
    Zr30   O99       0.69306      .   S
    Zr31   O99       0.69306      .   S
    Zr30   O100      0.54198      .   S
    Zr16   O100      0.54198  1_565   S
    Zr31   O101      0.54198      .   S
    Zr17   O101      0.54198      .   S
    Zr28   O102      0.69304      .   S
    Zr29   O102      0.69304      .   S
    Zr28   O103      0.54198      .   S
    Zr14   O103      0.54198      .   S
    Zr29   O104      0.54199      .   S
    Zr15   O104      0.54199      .   S
    Zr4    O105      1.19909      .   S
    Zr50   O105      1.19909  1_655   S
    Zr4    O106      1.19910      .   S
    Zr48   O106      1.19910      .   S
    Zr34   O107      0.67140      .   S
    Zr48   O107      0.67140      .   S
    Zr34   O108      0.67738      .   S
    Zr20   O108      0.67738      .   S
    Zr37   O109      0.67117      .   S
    Zr50   O109      0.67117      .   S
    Zr37   O110      0.67783      .   S
    Zr23   O110      0.67783      .   S
    Zr37   O111      0.60745      .   S
    Zr2    O111      0.60745      .   S
    Zr50   O112      0.67165      .   S
    Zr39   O112      0.67165      .   S
    Zr48   O113      0.67115      .   S
    Zr35   O113      0.67115      .   S
    Zr6    O114      0.54208      .   S
    Zr20   O114      0.54208      .   S
    Zr9    O115      0.54202      .   S
    Zr23   O115      0.54202      .   S
    Zr20   O116      0.69331      .   S
    Zr21   O116      0.69331      .   S
    Zr23   O117      0.69295      .   S
    Zr25   O117      0.69295      .   S
    Zr35   O118      0.67794      .   S
    Zr21   O118      0.67794      .   S
    Zr39   O119      0.67782      .   S
    Zr25   O119      0.67782      .   S
    N120   O121      1.40477      .   S
    Zr4    O121      2.60393  1_455   S
    N122   O123      1.41637      .   S
    Zr5    O123      2.61554  1_655   S
    N124   O125      1.41618      .   S
    Zr5    O125      2.61525  1_655   S
    N126   O127      1.41624      .   S
    Zr5    O127      2.61532  1_655   S
    N128   O129      1.41626      .   S
    Zr4    O129      2.61531  1_455   S
