# CIF file generated by openbabel 2.4.90, see http://openbabel.sf.net
data_I
_chemical_name_common ''
_cell_length_a 13.958
_cell_length_b 14.283
_cell_length_c 14.292
_cell_angle_alpha 95.047
_cell_angle_beta 106.523
_cell_angle_gamma 107.078
_space_group_name_H-M_alt 'P 1'
_space_group_name_Hall 'P 1'
loop_
    _symmetry_equiv_pos_as_xyz
    x,y,z
loop_
    _atom_site_label
    _atom_site_type_symbol
    _atom_site_fract_x
    _atom_site_fract_y
    _atom_site_fract_z
    _atom_site_occupancy
    Lv0     Lv   0.75060   0.14300   0.85719   1.000
    Lv1     Lv   0.25016   0.85700   0.14280   1.000
    Lv2     Lv   0.24341   0.13237   0.35445   1.000
    Lv3     Lv   0.74191   0.35396   0.13134   1.000
    Lv4     Lv   0.75659   0.86763   0.64554   1.000
    Lv5     Lv   0.25809   0.64604   0.86866   1.000
