# CIF file generated by openbabel 2.4.90, see http://openbabel.sf.net
data_I
_chemical_name_common ''
_cell_length_a 13.958
_cell_length_b 14.283
_cell_length_c 14.292
_cell_angle_alpha 95.047
_cell_angle_beta 106.523
_cell_angle_gamma 107.078
_space_group_name_H-M_alt 'P 1'
_space_group_name_Hall 'P 1'
loop_
    _symmetry_equiv_pos_as_xyz
    x,y,z
loop_
    _atom_site_label
    _atom_site_type_symbol
    _atom_site_fract_x
    _atom_site_fract_y
    _atom_site_fract_z
    _atom_site_occupancy
    H0      H    0.45277   0.68841   0.91012   1.000
    H1      H    0.48394   0.51612   0.91473   1.000
    H2      H    0.03418   0.77697   0.84003   1.000
    H3      H    0.07288   0.60831   0.85817   1.000
    H4      H    0.78396   0.18640   0.71007   1.000
    H5      H    0.95548   0.16970   0.70287   1.000
    H6      H    0.01521   0.07762   0.97373   1.000
    H7      H    0.84532   0.08484   0.99089   1.000
    H8      H    0.04898   0.09026   0.31434   1.000
    H9      H    0.01837   0.08593   0.48706   1.000
    H10     H    0.46642   0.16137   0.22080   1.000
    H11     H    0.42869   0.14450   0.39025   1.000
    H12     H    0.71910   0.29016   0.81254   1.000
    H13     H    0.54756   0.29793   0.82888   1.000
    H14     H    0.48420   0.02727   0.92288   1.000
    H15     H    0.65399   0.00959   0.91608   1.000
    H16     H    0.54723   0.31158   0.08987   1.000
    H17     H    0.51606   0.48387   0.08526   1.000
    H18     H    0.96582   0.22302   0.15997   1.000
    H19     H    0.92713   0.39169   0.14183   1.000
    H20     H    0.21605   0.81361   0.28993   1.000
    H21     H    0.04452   0.83030   0.29713   1.000
    H22     H    0.00000   0.92236   0.02626   1.000
    H23     H    0.15468   0.91515   0.00910   1.000
    H24     H    0.95102   0.90973   0.68566   1.000
    H25     H    0.98163   0.91406   0.51293   1.000
    H26     H    0.53358   0.83862   0.77919   1.000
    H27     H    0.57131   0.85549   0.60975   1.000
    H28     H    0.28090   0.70984   0.18746   1.000
    H29     H    0.45244   0.70206   0.17112   1.000
    H30     H    0.51580   0.97271   0.07710   1.000
    H31     H    0.34600   0.99040   0.08391   1.000
    C32     C    0.31369   0.44501   0.87580   1.000
    C33     C    0.28221   0.60772   0.86957   1.000
    C34     C    0.19635   0.84391   0.84278   1.000
    C35     C    0.38907   0.61719   0.89360   1.000
    C36     C    0.40638   0.52492   0.89679   1.000
    C37     C    0.23387   0.68442   0.85938   1.000
    C38     C    0.10946   0.76682   0.84429   1.000
    C39     C    0.13042   0.67691   0.85385   1.000
    C40     C    0.83298   0.16231   0.77051   1.000
    C41     C    0.92781   0.15299   0.76552   1.000
    C42     C    0.96032   0.09946   0.91642   1.000
    C43     C    0.86570   0.10469   0.92560   1.000
    C44     C    0.80042   0.13842   0.85232   1.000
    C45     C    0.18861   0.12568   0.55630   1.000
    C46     C    0.21954   0.13162   0.39314   1.000
    C47     C    0.30409   0.15703   0.15552   1.000
    C48     C    0.11280   0.10714   0.38487   1.000
    C49     C    0.09580   0.10411   0.47739   1.000
    C50     C    0.26750   0.14163   0.31579   1.000
    C51     C    0.39129   0.15673   0.23179   1.000
    C52     C    0.37085   0.14784   0.32214   1.000
    C53     C    0.66926   0.22987   0.83701   1.000
    C54     C    0.57443   0.23519   0.84612   1.000
    C55     C    0.53990   0.08443   0.90073   1.000
    C56     C    0.63444   0.07494   0.89573   1.000
    C57     C    0.70078   0.14798   0.86159   1.000
    C58     C    0.68630   0.55498   0.12419   1.000
    C59     C    0.71779   0.39227   0.13042   1.000
    C60     C    0.80365   0.15608   0.15722   1.000
    C61     C    0.61093   0.38280   0.10639   1.000
    C62     C    0.59362   0.47507   0.10320   1.000
    C63     C    0.76613   0.31558   0.14061   1.000
    C64     C    0.89055   0.23318   0.15571   1.000
    C65     C    0.86958   0.32308   0.14614   1.000
    C66     C    0.16702   0.83769   0.22948   1.000
    C67     C    0.07219   0.84700   0.23448   1.000
    C68     C    0.03968   0.90052   0.08357   1.000
    C69     C    0.13430   0.89530   0.07440   1.000
    C70     C    0.19959   0.86158   0.14767   1.000
    C71     C    0.81139   0.87432   0.44370   1.000
    C72     C    0.78046   0.86838   0.60686   1.000
    C73     C    0.69591   0.84296   0.84448   1.000
    C74     C    0.88720   0.89286   0.61512   1.000
    C75     C    0.90420   0.89589   0.52261   1.000
    C76     C    0.73250   0.85836   0.68421   1.000
    C77     C    0.60871   0.84326   0.76821   1.000
    C78     C    0.62916   0.85215   0.67786   1.000
    C79     C    0.33074   0.77012   0.16300   1.000
    C80     C    0.42557   0.76480   0.15388   1.000
    C81     C    0.46010   0.91556   0.09926   1.000
    C82     C    0.36556   0.92505   0.10426   1.000
    C83     C    0.29923   0.85201   0.13841   1.000
    S84     S    0.30412   0.80422   0.85124   1.000
    S85     S    0.20392   0.48356   0.85086   1.000
    S86     S    0.19669   0.14825   0.19650   1.000
    S87     S    0.29811   0.15103   0.51648   1.000
    S88     S    0.69588   0.19577   0.14875   1.000
    S89     S    0.79608   0.51643   0.14913   1.000
    S90     S    0.80331   0.85174   0.80349   1.000
    S91     S    0.70188   0.84897   0.48352   1.000
    N92     N    0.99149   0.12319   0.83802   1.000
    N93     N    0.50976   0.16291   0.87636   1.000
    N94     N    0.00852   0.87681   0.16198   1.000
    N95     N    0.49024   0.83707   0.12362   1.000
loop_
    _geom_bond_atom_site_label_1
    _geom_bond_atom_site_label_2
    _geom_bond_distance
    _geom_bond_site_symmetry_2
    _ccdc_geom_bond_type
    H23    C69       1.08733      .   S
    H22    C68       0.98148      .   S
    C69    C68       1.38633      .   S
    C69    C70       1.40099      .   S
    H30    C81       1.08798      .   S
    C68    N94       1.34804      .   S
    H31    C82       1.08744      .   S
    H17    C62       1.08685      .   S
    H16    C61       1.08997      .   S
    C81    C82       1.38635      .   S
    C81    N95       1.34809      .   S
    C62    C61       1.41023      .   S
    C62    C58       1.38491      .   S
    C82    C83       1.40103      .   S
    C61    C59       1.39377      .   S
    N95    C80       1.34928      .   S
    C58    S89       1.73130      .   S
    C59    C63       1.44320      .   S
    C59    S89       1.73861      .   S
    C83    C70       1.47770      .   S
    C83    C79       1.40416      .   S
    C63    C65       1.39485      .   S
    C63    S88       1.73711      .   S
    H19    C65       1.08886      .   S
    C65    C64       1.40785      .   S
    C70    C66       1.40414      .   S
    S88    C60       1.73439      .   S
    C80    C79       1.38936      .   S
    C80    H29       1.08992      .   S
    C47    S86       1.73431      .   S
    C47    C51       1.38523      .   S
    C64    C60       1.38519      .   S
    C64    H18       1.08785      .   S
    N94    C67       1.34929      .   S
    C79    H28       1.08953      .   S
    S86    C50       1.73699      .   S
    H10    C51       1.08783      .   S
    C66    C67       1.38939      .   S
    C66    H20       1.08953      .   S
    C51    C52       1.40783      .   S
    C67    H21       1.08994      .   S
    H8     C48       1.09001      .   S
    C50    C52       1.39492      .   S
    C50    C46       1.44325      .   S
    C52    H11       1.08885      .   S
    C48    C46       1.39387      .   S
    C48    C49       1.41024      .   S
    C46    S87       1.73864      .   S
    C71    S91       1.73126      .   S
    C71    C75       1.38504      .   S
    C49    H9        1.08684      .   S
    C49    C45       1.38504      .   S
    S91    C72       1.73865      .   S
    H25    C75       1.08685      .   S
    S87    C45       1.73126      .   S
    C75    C74       1.41023      .   S
    C72    C74       1.39388      .   S
    C72    C76       1.44325      .   S
    H27    C78       1.08885      .   S
    C74    H24       1.09001      .   S
    C78    C76       1.39491      .   S
    C78    C77       1.40784      .   S
    C76    S90       1.73700      .   S
    H5     C41       1.08993      .   S
    H4     C40       1.08952      .   S
    C41    C40       1.38939      .   S
    C41    N92       1.34930      .   S
    C77    H26       1.08783      .   S
    C77    C73       1.38523      .   S
    C40    C44       1.40413      .   S
    S90    C73       1.73430      .   S
    H12    C53       1.08953      .   S
    H13    C54       1.08992      .   S
    C53    C54       1.38937      .   S
    C53    C57       1.40415      .   S
    N92    C42       1.34805      .   S
    H2     C38       1.08785      .   S
    C34    C38       1.38520      .   S
    C34    S84       1.73439      .   S
    C38    C39       1.40785      .   S
    C54    N93       1.34927      .   S
    S85    C33       1.73862      .   S
    S85    C32       1.73129      .   S
    S84    C37       1.73710      .   S
    C44    C57       1.47770      .   S
    C44    C43       1.40099      .   S
    C39    H3        1.08886      .   S
    C39    C37       1.39484      .   S
    C37    C33       1.44320      .   S
    C57    C56       1.40105      .   S
    C33    C35       1.39376      .   S
    C32    C36       1.38491      .   S
    N93    C55       1.34810      .   S
    C35    C36       1.41024      .   S
    C35    H0        1.08996      .   S
    C56    C55       1.38635      .   S
    C56    H15       1.08743      .   S
    C36    H1        1.08684      .   S
    C55    H14       1.08797      .   S
    C42    C43       1.38631      .   S
    C42    H6        1.08796  1_655   S
    C43    H7        1.08734      .   S
