# CIF file generated by openbabel 2.4.90, see http://openbabel.sf.net
data_I
_chemical_name_common ''
_cell_length_a 13.958
_cell_length_b 14.283
_cell_length_c 14.292
_cell_angle_alpha 95.047
_cell_angle_beta 106.523
_cell_angle_gamma 107.078
_space_group_name_H-M_alt 'P 1'
_space_group_name_Hall 'P 1'
loop_
    _symmetry_equiv_pos_as_xyz
    x,y,z
loop_
    _atom_site_label
    _atom_site_type_symbol
    _atom_site_fract_x
    _atom_site_fract_y
    _atom_site_fract_z
    _atom_site_occupancy
    C0      C    0.20826   0.94979   0.84224   1.000
    C1      C    0.29794   0.33778   0.87194   1.000
    C2      C    0.29155   0.15673   0.04963   1.000
    C3      C    0.20462   0.12978   0.66341   1.000
    C4      C    0.79174   0.05020   0.15775   1.000
    C5      C    0.70205   0.66221   0.12806   1.000
    C6      C    0.70845   0.84326   0.95037   1.000
    C7      C    0.79538   0.87021   0.33659   1.000
