# CIF file generated by openbabel 2.4.90, see http://openbabel.sf.net
data_I
_chemical_name_common ''
_cell_length_a 14.273
_cell_length_b 15.94
_cell_length_c 19.73
_cell_angle_alpha 110.743
_cell_angle_beta 89.833
_cell_angle_gamma 116.784
_space_group_name_H-M_alt 'P 1'
_space_group_name_Hall 'P 1'
loop_
    _symmetry_equiv_pos_as_xyz
    x,y,z
loop_
    _atom_site_label
    _atom_site_type_symbol
    _atom_site_fract_x
    _atom_site_fract_y
    _atom_site_fract_z
    _atom_site_occupancy
    N0      N    0.27189   0.50149   0.66071   1.000
    N1      N    0.30950   0.95673   0.03261   1.000
    N2      N    0.77011   0.49882   0.83934   1.000
    N3      N    0.22939   0.50120   0.16048   1.000
    N4      N    0.69052   0.04329   0.96716   1.000
    N5      N    0.72814   0.49851   0.33910   1.000
    N6      N    0.35282   0.04348   0.46713   1.000
    N7      N    0.64717   0.95653   0.53270   1.000
    Zr8     Zr   0.44508   0.53975   0.80984   1.000
    O9      O    0.51661   0.68543   0.85567   1.000
    O10     O    0.52831   0.51441   0.81649   1.000
    O11     O    0.40593   0.52880   0.75986   1.000
    O12     O    0.38330   0.52762   0.77388   1.000
    Zr13    Zr   0.09066   0.45625   0.89493   1.000
    O14     O    0.15300   0.60079   0.93380   1.000
    O15     O    0.12403   0.45916   0.96973   1.000
    O16     O    0.14007   0.46091   0.82381   1.000
    O17     O    0.99023   0.45896   0.87779   1.000
    Zr18    Zr   0.90936   0.54377   0.10490   1.000
    O19     O    0.84701   0.39923   0.06600   1.000
    O20     O    0.00965   0.54105   0.12204   1.000
    O21     O    0.85995   0.53910   0.17602   1.000
    O22     O    0.87585   0.54086   0.03010   1.000
    Zr23    Zr   0.09454   0.53976   0.30968   1.000
    O24     O    0.12273   0.52875   0.25970   1.000
    O25     O    0.16879   0.68549   0.35552   1.000
    O26     O    0.14415   0.52754   0.27369   1.000
    O27     O    0.98580   0.51426   0.31627   1.000
    Zr28    Zr   0.63539   0.54410   0.60554   1.000
    O29     O    0.55281   0.39952   0.56645   1.000
    O30     O    0.66581   0.54105   0.53055   1.000
    O31     O    0.67976   0.53936   0.67654   1.000
    O32     O    0.53220   0.54140   0.62255   1.000
    Zr33    Zr   0.55495   0.46029   0.19001   1.000
    O34     O    0.47159   0.48561   0.18334   1.000
    O35     O    0.61674   0.47240   0.22596   1.000
    O36     O    0.48342   0.31460   0.14416   1.000
    O37     O    0.59410   0.47123   0.23998   1.000
    Zr38    Zr   0.36461   0.45587   0.39426   1.000
    O39     O    0.44718   0.60046   0.43336   1.000
    O40     O    0.32011   0.46063   0.32327   1.000
    O41     O    0.46781   0.45858   0.37725   1.000
    O42     O    0.33419   0.45892   0.46925   1.000
    Zr43    Zr   0.90549   0.46028   0.69017   1.000
    O44     O    0.83123   0.31453   0.64432   1.000
    O45     O    0.87716   0.47128   0.74013   1.000
    O46     O    0.85575   0.47248   0.72614   1.000
    O47     O    0.01423   0.48576   0.68356   1.000
loop_
    _geom_bond_atom_site_label_1
    _geom_bond_atom_site_label_2
    _geom_bond_distance
    _geom_bond_site_symmetry_2
    _ccdc_geom_bond_type
    Zr8    O9        1.90617      .   S
    N4     O9        4.68214  1_545   S
    Zr8    O10       1.43605      .   S
    N2     O10       3.61076      .   S
    Zr8    O11       1.05286      .   S
    N0     O11       2.51889      .   S
    Zr8    O12       1.03504      .   S
    N0     O12       2.54019      .   S
    Zr13   O14       1.89544      .   S
    N1     O14       4.66360  1_554   S
    Zr13   O15       1.53052      .   S
    N3     O15       3.77011  1_554   S
    Zr13   O16       1.57887      .   S
    N0     O16       3.82824      .   S
    Zr13   O17       1.49660  1_455   S
    N2     O17       3.60614      .   S
    Zr18   O19       1.89542      .   S
    N4     O19       4.66358  1_556   S
    Zr18   O20       1.49485  1_655   S
    N3     O20       3.60092      .   S
    Zr18   O21       1.57882      .   S
    N5     O21       3.82790      .   S
    Zr18   O22       1.53111      .   S
    N2     O22       3.77204  1_556   S
    Zr23   O24       1.05060      .   S
    N3     O24       2.51379      .   S
    Zr23   O25       1.90686      .   S
    N6     O25       4.68345  1_545   S
    Zr23   O26       1.03285      .   S
    N3     O26       2.53501      .   S
    Zr23   O27       1.43487  1_455   S
    N5     O27       3.60949      .   S
    Zr28   O29       1.89559      .   S
    N6     O29       4.66390      .   S
    Zr28   O30       1.53115      .   S
    N5     O30       3.77216      .   S
    Zr28   O31       1.57877      .   S
    N2     O31       3.82659      .   S
    Zr28   O32       1.49459      .   S
    N0     O32       3.60126      .   S
    Zr33   O34       1.43788      .   S
    N3     O34       3.61628      .   S
    Zr33   O35       1.03489      .   S
    N5     O35       2.53985      .   S
    Zr33   O36       1.90625      .   S
    N1     O36       4.68231  1_565   S
    Zr33   O37       1.05272      .   S
    N5     O37       2.51853      .   S
    Zr38   O39       1.89571      .   S
    N7     O39       4.66416      .   S
    Zr38   O40       1.57951      .   S
    N3     O40       3.82888      .   S
    Zr38   O41       1.49462      .   S
    N5     O41       3.60141      .   S
    Zr38   O42       1.53115      .   S
    N0     O42       3.77217      .   S
    Zr43   O44       1.90698      .   S
    N7     O44       4.68369  1_565   S
    Zr43   O45       1.05112      .   S
    N2     O45       2.51734      .   S
    Zr43   O46       1.03410      .   S
    N2     O46       2.53773      .   S
    Zr43   O47       1.43498  1_655   S
    N0     O47       3.60967      .   S
