# CIF file generated by openbabel 2.4.90, see http://openbabel.sf.net
data_I
_chemical_name_common ''
_cell_length_a 15.096
_cell_length_b 16.337
_cell_length_c 16.337
_cell_angle_alpha 119.849
_cell_angle_beta 90.001
_cell_angle_gamma 90.001
_space_group_name_H-M_alt 'P 1'
_space_group_name_Hall 'P 1'
loop_
    _symmetry_equiv_pos_as_xyz
    x,y,z
loop_
    _atom_site_label
    _atom_site_type_symbol
    _atom_site_fract_x
    _atom_site_fract_y
    _atom_site_fract_z
    _atom_site_occupancy
    Lv0     Lv   0.14246   0.00051   0.38669   1.000
    Lv1     Lv   0.87512   0.62342   0.99951   1.000
    Lv2     Lv   0.14265   0.61345   0.61345   1.000
    Lv3     Lv   0.64245   0.00051   0.38668   1.000
    Lv4     Lv   0.14246   0.38669   0.00050   1.000
    Lv5     Lv   0.64245   0.38669   0.00050   1.000
    Lv6     Lv   0.39290   0.38672   0.38672   1.000
    Lv7     Lv   0.89289   0.38673   0.38671   1.000
    Lv8     Lv   0.37513   0.62342   0.99951   1.000
    Lv9     Lv   0.64263   0.61345   0.61344   1.000
    Lv10    Lv   0.39275   0.99958   0.61335   1.000
    Lv11    Lv   0.89274   0.99958   0.61335   1.000
