# CIF file generated by openbabel 2.4.90, see http://openbabel.sf.net
data_I
_chemical_name_common ''
_cell_length_a 15.096
_cell_length_b 16.337
_cell_length_c 16.337
_cell_angle_alpha 119.849
_cell_angle_beta 90.001
_cell_angle_gamma 90.001
_space_group_name_H-M_alt 'P 1'
_space_group_name_Hall 'P 1'
loop_
    _symmetry_equiv_pos_as_xyz
    x,y,z
loop_
    _atom_site_label
    _atom_site_type_symbol
    _atom_site_fract_x
    _atom_site_fract_y
    _atom_site_fract_z
    _atom_site_occupancy
    H0      H    0.32064   0.85320   0.58058   1.000
    H1      H    0.82062   0.85320   0.58057   1.000
    H2      H    0.32083   0.72760   0.14549   1.000
    H3      H    0.82081   0.72760   0.14549   1.000
    H4      H    0.32103   0.41899   0.27249   1.000
    H5      H    0.82102   0.41899   0.27250   1.000
    H6      H    0.07043   0.14692   0.41946   1.000
    H7      H    0.57041   0.14692   0.41946   1.000
    H8      H    0.07052   0.27241   0.85461   1.000
    H9      H    0.57051   0.27241   0.85461   1.000
    H10     H    0.07080   0.58118   0.72767   1.000
    H11     H    0.57078   0.58118   0.72767   1.000
    H12     H    0.07081   0.72769   0.58119   1.000
    H13     H    0.57079   0.72769   0.58119   1.000
    H14     H    0.07044   0.41946   0.14692   1.000
    H15     H    0.57042   0.41946   0.14692   1.000
    H16     H    0.07053   0.85462   0.27240   1.000
    H17     H    0.57051   0.85462   0.27240   1.000
    H18     H    0.32104   0.27249   0.41897   1.000
    H19     H    0.82102   0.27249   0.41897   1.000
    H20     H    0.32064   0.58059   0.85319   1.000
    H21     H    0.82063   0.58058   0.85319   1.000
    H22     H    0.32083   0.14549   0.72760   1.000
    H23     H    0.82081   0.14549   0.72760   1.000
    H24     H    0.03369   0.00004   0.53284   1.000
    H25     H    0.53367   0.00004   0.53284   1.000
    H26     H    0.03355   0.46771   0.46770   1.000
    H27     H    0.53354   0.46771   0.46770   1.000
    H28     H    0.28332   0.99998   0.46729   1.000
    H29     H    0.78331   0.99998   0.46720   1.000
    H30     H    0.28332   0.46729   0.99998   1.000
    H31     H    0.78331   0.46729   0.99998   1.000
    H32     H    0.28326   0.53243   0.53242   1.000
    H33     H    0.78325   0.53243   0.53242   1.000
    C34     C    0.35367   0.91849   0.59507   1.000
    C35     C    0.85365   0.91849   0.59507   1.000
    C36     C    0.43231   0.91486   0.54762   1.000
    C37     C    0.93230   0.91486   0.54762   1.000
    C38     C    0.35375   0.67649   0.08040   1.000
    C39     C    0.85374   0.67649   0.08040   1.000
    C40     C    0.43236   0.63289   0.08456   1.000
    C41     C    0.93234   0.63289   0.08456   1.000
    C42     C    0.35394   0.40474   0.32359   1.000
    C43     C    0.85392   0.40474   0.32359   1.000
    C44     C    0.43241   0.45247   0.36742   1.000
    C45     C    0.93239   0.45247   0.36742   1.000
    C46     C    0.10344   0.08160   0.40492   1.000
    C47     C    0.60342   0.08160   0.40492   1.000
    C48     C    0.18201   0.08521   0.45247   1.000
    C49     C    0.68200   0.08521   0.45247   1.000
    C50     C    0.10347   0.32350   0.91970   1.000
    C51     C    0.60346   0.32350   0.91970   1.000
    C52     C    0.18201   0.36719   0.91551   1.000
    C53     C    0.68199   0.36719   0.91551   1.000
    C54     C    0.10371   0.59547   0.67660   1.000
    C55     C    0.60369   0.59547   0.67660   1.000
    C56     C    0.18213   0.54768   0.63271   1.000
    C57     C    0.68212   0.54768   0.63272   1.000
    C58     C    0.10371   0.67661   0.59547   1.000
    C59     C    0.60369   0.67661   0.59540   1.000
    C60     C    0.18212   0.63271   0.54766   1.000
    C61     C    0.68211   0.63272   0.54767   1.000
    C62     C    0.10344   0.40493   0.08160   1.000
    C63     C    0.60342   0.40493   0.08160   1.000
    C64     C    0.18201   0.45249   0.08520   1.000
    C65     C    0.68199   0.45248   0.08520   1.000
    C66     C    0.10348   0.91970   0.32349   1.000
    C67     C    0.60346   0.91970   0.32349   1.000
    C68     C    0.18200   0.91552   0.36720   1.000
    C69     C    0.68198   0.91552   0.36720   1.000
    C70     C    0.35394   0.32359   0.40473   1.000
    C71     C    0.85392   0.32360   0.40470   1.000
    C72     C    0.43240   0.36743   0.45247   1.000
    C73     C    0.93239   0.36743   0.45247   1.000
    C74     C    0.35366   0.59507   0.91848   1.000
    C75     C    0.85365   0.59507   0.91848   1.000
    C76     C    0.43231   0.54762   0.91485   1.000
    C77     C    0.93229   0.54761   0.91485   1.000
    C78     C    0.35376   0.08041   0.67649   1.000
    C79     C    0.85374   0.08041   0.67649   1.000
    C80     C    0.43235   0.08456   0.63287   1.000
    C81     C    0.93234   0.08456   0.63287   1.000
    C82     C    0.47259   0.99983   0.56800   1.000
    C83     C    0.97258   0.99983   0.56802   1.000
    C84     C    0.47258   0.56801   0.99983   1.000
    C85     C    0.97257   0.56802   0.99983   1.000
    C86     C    0.47258   0.43231   0.43230   1.000
    C87     C    0.97257   0.43231   0.43231   1.000
    C88     C    0.22229   0.00022   0.43203   1.000
    C89     C    0.72228   0.00022   0.43203   1.000
    C90     C    0.22229   0.43204   0.00021   1.000
    C91     C    0.72227   0.43204   0.00021   1.000
    C92     C    0.22234   0.56786   0.56786   1.000
    C93     C    0.72232   0.56786   0.56785   1.000
    N94     N    0.31493   0.99931   0.65906   1.000
    N95     N    0.81491   0.99931   0.65906   1.000
    N96     N    0.31493   0.65907   0.99931   1.000
    N97     N    0.81491   0.65906   0.99931   1.000
    N98     N    0.31521   0.34078   0.34077   1.000
    N99     N    0.81520   0.34078   0.34077   1.000
    N100    N    0.06467   0.00080   0.34093   1.000
    N101    N    0.56465   0.00080   0.34093   1.000
    N102    N    0.06467   0.34094   0.00080   1.000
    N103    N    0.56465   0.34094   0.00080   1.000
    N104    N    0.06498   0.65944   0.65943   1.000
    N105    N    0.56497   0.65944   0.65944   1.000
loop_
    _geom_bond_atom_site_label_1
    _geom_bond_atom_site_label_2
    _geom_bond_distance
    _geom_bond_site_symmetry_2
    _ccdc_geom_bond_type
    C90    C64       1.39560      .   S
    C90    C52       1.39557  1_554   S
    C90    H30       1.08744  1_554   S
    C91    C65       1.39560      .   S
    C91    C53       1.39557  1_554   S
    C91    H31       1.08744  1_554   S
    N102   C62       1.34323      .   S
    N102   C50       1.34318  1_554   S
    N103   C63       1.34323      .   S
    N103   C51       1.34318  1_554   S
    C38    C40       1.40296      .   S
    C38    H2        1.09146      .   S
    C38    N96       1.34319  1_554   S
    C39    C41       1.40297      .   S
    C39    H3        1.09146      .   S
    C39    N97       1.34319  1_554   S
    C63    C65       1.40294      .   S
    C63    H15       1.09143      .   S
    C62    C64       1.40294      .   S
    C62    H14       1.09143      .   S
    C41    C85       1.39563  1_554   S
    C40    C84       1.39563  1_554   S
    H17    C67       1.09140      .   S
    H16    C66       1.09140      .   S
    H4     C42       1.09147      .   S
    H5     C43       1.09133      .   S
    C67    N101      1.34314  1_565   S
    C67    C69       1.40292      .   S
    C66    N100      1.34311  1_565   S
    C66    C68       1.40292      .   S
    C42    N98       1.34330      .   S
    C42    C44       1.40292      .   S
    C43    N99       1.34332      .   S
    C43    C45       1.40293      .   S
    N98    C70       1.34331      .   S
    N99    C71       1.34285      .   S
    N100   C46       1.34328      .   S
    N101   C47       1.34328      .   S
    C69    C89       1.39554  1_565   S
    C68    C88       1.39554  1_565   S
    C44    C86       1.39547      .   S
    C45    C87       1.39556      .   S
    C71    H19       1.09171      .   S
    C71    C73       1.40306      .   S
    C70    H18       1.09140      .   S
    C70    C72       1.40289      .   S
    C46    H6        1.09137      .   S
    C46    C48       1.40293      .   S
    C47    H7        1.09138      .   S
    C47    C49       1.40293      .   S
    C88    C48       1.39561      .   S
    C88    H28       1.08752  1_545   S
    C89    C49       1.39562      .   S
    C89    H29       1.08674  1_545   S
    C86    C72       1.39554      .   S
    C86    H27       1.08745      .   S
    C87    C73       1.39548      .   S
    C87    H26       1.08780  1_655   S
    H33    C93       1.08746      .   S
    H32    C92       1.08746      .   S
    H25    C82       1.08730  1_545   S
    H24    C83       1.08785  1_445   S
    C36    C82       1.39555      .   S
    C36    C34       1.40297      .   S
    C37    C83       1.39549      .   S
    C37    C35       1.40294      .   S
    C60    C92       1.39568      .   S
    C60    C58       1.40290      .   S
    C61    C93       1.39555      .   S
    C61    C59       1.40256      .   S
    C93    C57       1.39566      .   S
    C92    C56       1.39551      .   S
    C82    C80       1.39565  1_565   S
    C83    C81       1.39559  1_565   S
    H1     C35       1.09136      .   S
    H0     C34       1.09140      .   S
    H13    C59       1.09074      .   S
    H12    C58       1.09138      .   S
    C35    N95       1.34321      .   S
    C34    N94       1.34318      .   S
    C59    N105      1.34425      .   S
    C58    N104      1.34321      .   S
    C56    C54       1.40289      .   S
    C57    C55       1.40288      .   S
    C81    C79       1.40291      .   S
    C80    C78       1.40294      .   S
    N94    C78       1.34328  1_565   S
    N95    C79       1.34329  1_565   S
    N104   C54       1.34325      .   S
    N105   C55       1.34324      .   S
    C79    H23       1.09143      .   S
    C78    H22       1.09139      .   S
    C54    H10       1.09150      .   S
    C55    H11       1.09143      .   S
    H21    C75       1.09132      .   S
    H20    C74       1.09132      .   S
    H9     C51       1.09148      .   S
    H8     C50       1.09149      .   S
    C77    C75       1.40295      .   S
    C77    C85       1.39555      .   S
    C76    C74       1.40296      .   S
    C76    C84       1.39554      .   S
    C52    C50       1.40297      .   S
    C53    C51       1.40296      .   S
    C75    N97       1.34334      .   S
    C74    N96       1.34334      .   S
