# CIF file generated by openbabel 2.4.90, see http://openbabel.sf.net
data_I
_chemical_name_common ''
_cell_length_a 15.096
_cell_length_b 16.337
_cell_length_c 16.337
_cell_angle_alpha 119.849
_cell_angle_beta 90.001
_cell_angle_gamma 90.001
_space_group_name_H-M_alt 'P 1'
_space_group_name_Hall 'P 1'
loop_
    _symmetry_equiv_pos_as_xyz
    x,y,z
loop_
    _atom_site_label
    _atom_site_type_symbol
    _atom_site_fract_x
    _atom_site_fract_y
    _atom_site_fract_z
    _atom_site_occupancy
    C0      C    0.47240   0.82494   0.47480   1.000
    C1      C    0.97238   0.82494   0.47480   1.000
    C2      C    0.47245   0.65050   0.17479   1.000
    C3      C    0.97244   0.65050   0.17479   1.000
    C4      C    0.47250   0.52524   0.34990   1.000
    C5      C    0.97248   0.52524   0.34990   1.000
    C6      C    0.22195   0.17518   0.52537   1.000
    C7      C    0.72194   0.17518   0.52537   1.000
    C8      C    0.22191   0.34958   0.82520   1.000
    C9      C    0.72189   0.34958   0.82520   1.000
    C10     C    0.22201   0.47478   0.65016   1.000
    C11     C    0.72200   0.47478   0.65016   1.000
    C12     C    0.22202   0.65018   0.47479   1.000
    C13     C    0.72200   0.65018   0.47479   1.000
    C14     C    0.22196   0.52537   0.17510   1.000
    C15     C    0.72194   0.52537   0.17510   1.000
    C16     C    0.22191   0.82521   0.34957   1.000
    C17     C    0.72190   0.82521   0.34957   1.000
    C18     C    0.47250   0.34990   0.52522   1.000
    C19     C    0.97249   0.34990   0.52522   1.000
    C20     C    0.47240   0.47481   0.82493   1.000
    C21     C    0.97239   0.47481   0.82493   1.000
    C22     C    0.47246   0.17480   0.65050   1.000
    C23     C    0.97244   0.17480   0.65000   1.000
