# CIF file generated by openbabel 2.4.90, see http://openbabel.sf.net
data_I
_chemical_name_common ''
_cell_length_a 15.096
_cell_length_b 16.337
_cell_length_c 16.337
_cell_angle_alpha 119.849
_cell_angle_beta 90.001
_cell_angle_gamma 90.001
_space_group_name_H-M_alt 'P 1'
_space_group_name_Hall 'P 1'
loop_
    _symmetry_equiv_pos_as_xyz
    x,y,z
loop_
    _atom_site_label
    _atom_site_type_symbol
    _atom_site_fract_x
    _atom_site_fract_y
    _atom_site_fract_z
    _atom_site_occupancy
    Zr0     Zr   0.06717   0.66703   0.33319   1.000
    Zr1     Zr   0.56716   0.66703   0.33319   1.000
    Zr2     Zr   0.31724   0.33303   0.66686   1.000
    Zr3     Zr   0.81722   0.33303   0.66686   1.000
    Zr4     Zr   0.31724   0.66687   0.33303   1.000
    Zr5     Zr   0.81722   0.66687   0.33303   1.000
    Zr6     Zr   0.06717   0.33319   0.66703   1.000
    Zr7     Zr   0.56716   0.33319   0.66703   1.000
    N8      N    0.14246   0.00051   0.38669   1.000
    N9      N    0.87512   0.62342   0.99951   1.000
    N10     N    0.14265   0.61345   0.61345   1.000
    N11     N    0.64245   0.00051   0.38668   1.000
    N12     N    0.14246   0.38669   0.00050   1.000
    N13     N    0.64245   0.38669   0.00050   1.000
    N14     N    0.39290   0.38672   0.38672   1.000
    N15     N    0.89289   0.38673   0.38671   1.000
    N16     N    0.37513   0.62342   0.99951   1.000
    N17     N    0.64263   0.61345   0.61344   1.000
    N18     N    0.39275   0.99958   0.61335   1.000
    N19     N    0.89274   0.99958   0.61335   1.000
    C20     C    0.23374   0.20125   0.54639   1.000
    O21     O    0.20298   0.13330   0.49210   1.000
    O22     O    0.17925   0.24774   0.57852   1.000
    C23     C    0.73364   0.34444   0.79905   1.000
    O24     O    0.70292   0.35849   0.86724   1.000
    O25     O    0.67915   0.33010   0.75260   1.000
    C26     C    0.73376   0.45375   0.65529   1.000
    O27     O    0.67926   0.42166   0.66978   1.000
    O28     O    0.70305   0.50805   0.64137   1.000
    C29     C    0.23366   0.34444   0.79905   1.000
    O30     O    0.20293   0.35849   0.86724   1.000
    O31     O    0.17917   0.33010   0.75260   1.000
    C32     C    0.48433   0.34474   0.54623   1.000
    O33     O    0.42970   0.33030   0.57841   1.000
    O34     O    0.45350   0.35872   0.49200   1.000
    C35     C    0.98423   0.45380   0.79886   1.000
    O36     O    0.94898   0.51056   0.86678   1.000
    O37     O    0.92962   0.42157   0.75233   1.000
    C38     C    0.48426   0.20094   0.65564   1.000
    O39     O    0.45342   0.13278   0.64158   1.000
    O40     O    0.42964   0.24744   0.66994   1.000
    C41     C    0.23378   0.45375   0.65529   1.000
    O42     O    0.17928   0.42166   0.66978   1.000
    O43     O    0.20307   0.50805   0.64137   1.000
    C44     C    0.98432   0.34474   0.54623   1.000
    O45     O    0.92969   0.33030   0.57841   1.000
    O46     O    0.95349   0.35872   0.49200   1.000
    C47     C    0.48423   0.45380   0.79856   1.000
    O48     O    0.44899   0.51056   0.86663   1.000
    O49     O    0.42963   0.42157   0.75218   1.000
    C50     C    0.73372   0.20125   0.54639   1.000
    O51     O    0.70297   0.13330   0.49209   1.000
    O52     O    0.67923   0.24774   0.57852   1.000
    C53     C    0.98426   0.20094   0.65547   1.000
    O54     O    0.95341   0.13278   0.64143   1.000
    O55     O    0.92963   0.24744   0.66986   1.000
    C56     C    0.48426   0.65565   0.20091   1.000
    O57     O    0.44901   0.64410   0.13275   1.000
    O58     O    0.42964   0.66995   0.24742   1.000
    C59     C    0.49666   0.54289   0.35855   1.000
    O60     O    0.43587   0.57675   0.33721   1.000
    O61     O    0.45967   0.49034   0.36562   1.000
    C62     C    0.99666   0.54289   0.35855   1.000
    O63     O    0.93586   0.57675   0.33721   1.000
    O64     O    0.95966   0.49034   0.36562   1.000
    C65     C    0.48423   0.79887   0.45380   1.000
    O66     O    0.42963   0.75234   0.42157   1.000
    O67     O    0.45339   0.86680   0.50804   1.000
    C68     C    0.73373   0.54639   0.20122   1.000
    O69     O    0.70297   0.49210   0.13327   1.000
    O70     O    0.67923   0.57853   0.24772   1.000
    C71     C    0.73364   0.79906   0.34443   1.000
    O72     O    0.70292   0.86725   0.35848   1.000
    O73     O    0.67915   0.75261   0.33009   1.000
    C74     C    0.98425   0.65565   0.20091   1.000
    O75     O    0.92963   0.66995   0.24742   1.000
    O76     O    0.94900   0.64410   0.13275   1.000
    C77     C    0.73376   0.65530   0.45374   1.000
    O78     O    0.70305   0.64138   0.50804   1.000
    O79     O    0.67926   0.66979   0.42165   1.000
    C80     C    0.23378   0.65530   0.45375   1.000
    O81     O    0.17928   0.66979   0.42166   1.000
    O82     O    0.20307   0.64137   0.50804   1.000
    C83     C    0.23366   0.79906   0.34443   1.000
    O84     O    0.20293   0.86725   0.35848   1.000
    O85     O    0.17917   0.75261   0.33009   1.000
    C86     C    0.98423   0.79887   0.45380   1.000
    O87     O    0.92962   0.75234   0.42157   1.000
    O88     O    0.95338   0.86680   0.50804   1.000
    C89     C    0.23374   0.54639   0.20122   1.000
    O90     O    0.20298   0.49210   0.13327   1.000
    O91     O    0.17925   0.57853   0.24772   1.000
    O92     O    0.50644   0.42103   0.76238   1.000
    O93     O    0.50646   0.23727   0.65913   1.000
    O94     O    0.50651   0.34121   0.57905   1.000
    O95     O    0.00644   0.42103   0.76264   1.000
    O96     O    0.00646   0.23727   0.65905   1.000
    O97     O    0.00651   0.34121   0.57905   1.000
    O98     O    0.25609   0.23745   0.57913   1.000
    O99     O    0.25602   0.34094   0.76273   1.000
    O100    O    0.25611   0.42094   0.65883   1.000
    O101    O    0.75601   0.34094   0.76273   1.000
    O102    O    0.50644   0.76265   0.42102   1.000
    O103    O    0.51268   0.57739   0.34811   1.000
    O104    O    0.50646   0.65914   0.23724   1.000
    O105    O    0.75607   0.57914   0.23743   1.000
    O106    O    0.25611   0.65883   0.42094   1.000
    O107    O    0.25602   0.76274   0.34094   1.000
    O108    O    0.25609   0.57914   0.23743   1.000
    O109    O    0.75610   0.65883   0.42093   1.000
    O110    O    0.75601   0.76274   0.34094   1.000
    O111    O    0.00644   0.76265   0.42102   1.000
    O112    O    0.00646   0.65914   0.23724   1.000
    O113    O    0.01268   0.57739   0.34811   1.000
    O114    O    0.75610   0.42094   0.65883   1.000
    O115    O    0.75607   0.23745   0.57913   1.000
loop_
    _geom_bond_atom_site_label_1
    _geom_bond_atom_site_label_2
    _geom_bond_distance
    _geom_bond_site_symmetry_2
    _ccdc_geom_bond_type
    C20    O21       1.12002      .   S
    N8     O21       2.18805      .   S
    C20    O22       1.06409      .   S
    Zr6    O22       2.21202      .   S
    C23    O24       1.11995      .   S
    N13    O24       2.18792  1_554   S
    C23    O25       1.06317      .   S
    Zr7    O25       2.21033      .   S
    C26    O27       1.06363      .   S
    Zr7    O27       2.21134      .   S
    C26    O28       1.11998      .   S
    N17    O28       2.18801      .   S
    C29    O30       1.11995      .   S
    N12    O30       2.18792  1_554   S
    C29    O31       1.06317      .   S
    Zr6    O31       2.21034      .   S
    C32    O33       1.06560      .   S
    Zr2    O33       2.21550      .   S
    C32    O34       1.12015      .   S
    N14    O34       2.18822      .   S
    C35    O36       1.16192      .   S
    N9     O36       2.31629      .   S
    C35    O37       1.06593      .   S
    Zr3    O37       2.21589      .   S
    C38    O39       1.12013      .   S
    N18    O39       2.18817  1_565   S
    C38    O40       1.06528      .   S
    Zr2    O40       2.21526      .   S
    C41    O42       1.06363      .   S
    Zr6    O42       2.21135      .   S
    C41    O43       1.11997      .   S
    N10    O43       2.18796      .   S
    C44    O45       1.06566      .   S
    Zr3    O45       2.21556      .   S
    C44    O46       1.12019      .   S
    N15    O46       2.18827      .   S
    C47    O48       1.16324      .   S
    N16    O48       2.31757      .   S
    C47    O49       1.06474      .   S
    Zr2    O49       2.21509      .   S
    C50    O51       1.12003      .   S
    N11    O51       2.18808      .   S
    C50    O52       1.06408      .   S
    Zr7    O52       2.21201      .   S
    C53    O54       1.12026      .   S
    N19    O54       2.18887  1_565   S
    C53    O55       1.06516      .   S
    Zr3    O55       2.21486      .   S
    C56    O57       1.16162      .   S
    N16    O57       2.31597  1_556   S
    C56    O58       1.06542      .   S
    Zr4    O58       2.21541      .   S
    C59    O60       1.20903      .   S
    Zr4    O60       2.34087      .   S
    C59    O61       1.07745      .   S
    N14    O61       2.14030      .   S
    C62    O63       1.20912      .   S
    Zr5    O63       2.34097      .   S
    C62    O64       1.07749      .   S
    N15    O64       2.14032      .   S
    C65    O66       1.06586      .   S
    Zr4    O66       2.21580      .   S
    C65    O67       1.12018      .   S
    N18    O67       2.18825      .   S
    C68    O69       1.11999      .   S
    N13    O69       2.18782      .   S
    C68    O70       1.06419      .   S
    Zr1    O70       2.21211      .   S
    C71    O72       1.11993      .   S
    N11    O72       2.18790  1_545   S
    C71    O73       1.06320      .   S
    Zr1    O73       2.21043      .   S
    C74    O75       1.06548      .   S
    Zr5    O75       2.21546      .   S
    C74    O76       1.16165      .   S
    N9     O76       2.31601  1_556   S
    C77    O78       1.12002      .   S
    N17    O78       2.18795      .   S
    C77    O79       1.06358      .   S
    Zr1    O79       2.21129      .   S
    C80    O81       1.06363      .   S
    Zr0    O81       2.21135      .   S
    C80    O82       1.11995      .   S
    N10    O82       2.18794      .   S
    C83    O84       1.11992      .   S
    N8     O84       2.18786  1_545   S
    C83    O85       1.06320      .   S
    Zr0    O85       2.21043      .   S
    C86    O87       1.06592      .   S
    Zr5    O87       2.21586      .   S
    C86    O88       1.12021      .   S
    N19    O88       2.18827      .   S
    C89    O90       1.11999      .   S
    N12    O90       2.18783      .   S
    C89    O91       1.06420      .   S
    Zr0    O91       2.21212      .   S
    Zr7    O92       1.76089      .   S
    C47    O92       0.65839      .   S
    Zr7    O93       1.76368      .   S
    C38    O93       0.65891      .   S
    Zr7    O94       1.76308      .   S
    C32    O94       0.65872      .   S
    Zr6    O95       1.76303      .   S
    C35    O95       0.65873  1_655   S
    Zr6    O96       1.76328      .   S
    C53    O96       0.65846  1_655   S
    Zr6    O97       1.76318      .   S
    C44    O97       0.65876  1_655   S
    Zr2    O98       1.76540      .   S
    C20    O98       0.65943      .   S
    Zr2    O99       1.76707      .   S
    C29    O99       0.65995      .   S
    Zr2    O100      1.76609      .   S
    C41    O100      0.65964      .   S
    C23    O101      0.65995      .   S
    Zr3    O101      1.76707      .   S
    Zr1    O102      1.76295      .   S
    C65    O102      0.65869      .   S
    Zr1    O103      1.79890      .   S
    C59    O103      0.70774      .   S
    Zr1    O104      1.76408      .   S
    C56    O104      0.65897      .   S
    C68    O105      0.65955      .   S
    Zr5    O105      1.76555      .   S
    Zr4    O106      1.76609      .   S
    C80    O106      0.65964      .   S
    Zr4    O107      1.76712      .   S
    C83    O107      0.65995      .   S
    Zr4    O108      1.76554      .   S
    C89    O108      0.65955      .   S
    Zr5    O109      1.76598      .   S
    C77    O109      0.65963      .   S
    Zr5    O110      1.76711      .   S
    C71    O110      0.65995      .   S
    Zr0    O111      1.76305      .   S
    C86    O111      0.65874  1_655   S
    Zr0    O112      1.76419      .   S
    C74    O112      0.65902  1_655   S
    Zr0    O113      1.79897      .   S
    C62    O113      0.70775  1_655   S
    Zr3    O114      1.76610      .   S
    C26    O114      0.65964      .   S
    Zr3    O115      1.76540      .   S
    C50    O115      0.65944      .   S
