# CIF file generated by openbabel 2.4.90, see http://openbabel.sf.net
data_I
_chemical_name_common ''
_cell_length_a 15.096
_cell_length_b 16.337
_cell_length_c 16.337
_cell_angle_alpha 119.849
_cell_angle_beta 90.001
_cell_angle_gamma 90.001
_space_group_name_H-M_alt 'P 1'
_space_group_name_Hall 'P 1'
loop_
    _symmetry_equiv_pos_as_xyz
    x,y,z
loop_
    _atom_site_label
    _atom_site_type_symbol
    _atom_site_fract_x
    _atom_site_fract_y
    _atom_site_fract_z
    _atom_site_occupancy
    C0      C    0.06717   0.66703   0.33319   1.000
    C1      C    0.56716   0.66703   0.33319   1.000
    C2      C    0.31724   0.33303   0.66686   1.000
    C3      C    0.81722   0.33303   0.66686   1.000
    C4      C    0.31724   0.66687   0.33303   1.000
    C5      C    0.81722   0.66687   0.33303   1.000
    C6      C    0.06717   0.33319   0.66703   1.000
    C7      C    0.56716   0.33319   0.66703   1.000
    C8      C    0.32064   0.85320   0.58058   1.000
    C9      C    0.82062   0.85320   0.58057   1.000
    C10     C    0.32083   0.72760   0.14549   1.000
    C11     C    0.82081   0.72760   0.14549   1.000
    C12     C    0.32103   0.41899   0.27249   1.000
    C13     C    0.82102   0.41899   0.27250   1.000
    C14     C    0.07043   0.14692   0.41946   1.000
    C15     C    0.57041   0.14692   0.41946   1.000
    C16     C    0.07052   0.27241   0.85461   1.000
    C17     C    0.57051   0.27241   0.85461   1.000
    C18     C    0.07080   0.58118   0.72767   1.000
    C19     C    0.57078   0.58118   0.72767   1.000
    C20     C    0.07081   0.72769   0.58119   1.000
    C21     C    0.57079   0.72769   0.58119   1.000
    C22     C    0.07044   0.41946   0.14692   1.000
    C23     C    0.57042   0.41946   0.14692   1.000
    C24     C    0.07053   0.85462   0.27240   1.000
    C25     C    0.57051   0.85462   0.27240   1.000
    C26     C    0.32104   0.27249   0.41897   1.000
    C27     C    0.82102   0.27249   0.41897   1.000
    C28     C    0.32064   0.58059   0.85319   1.000
    C29     C    0.82063   0.58058   0.85319   1.000
    C30     C    0.32083   0.14549   0.72760   1.000
    C31     C    0.82081   0.14549   0.72760   1.000
    C32     C    0.03369   0.00004   0.53284   1.000
    C33     C    0.53367   0.00004   0.53284   1.000
    C34     C    0.03369   0.53284   0.40000   1.000
    C35     C    0.53367   0.53284   0.40000   1.000
    C36     C    0.03355   0.46771   0.46770   1.000
    C37     C    0.53354   0.46771   0.46770   1.000
    C38     C    0.28332   0.99998   0.46729   1.000
    C39     C    0.78331   0.99998   0.46720   1.000
    C40     C    0.28332   0.46729   0.99998   1.000
    C41     C    0.78331   0.46729   0.99998   1.000
    C42     C    0.28326   0.53243   0.53242   1.000
    C43     C    0.78325   0.53243   0.53242   1.000
    C44     C    0.35367   0.91849   0.59507   1.000
    C45     C    0.85365   0.91849   0.59507   1.000
    C46     C    0.43231   0.91486   0.54762   1.000
    C47     C    0.93230   0.91486   0.54762   1.000
    C48     C    0.47240   0.82494   0.47480   1.000
    C49     C    0.97238   0.82494   0.47480   1.000
    C50     C    0.35375   0.67649   0.08040   1.000
    C51     C    0.85374   0.67649   0.08040   1.000
    C52     C    0.43236   0.63289   0.08456   1.000
    C53     C    0.93234   0.63289   0.08456   1.000
    C54     C    0.47245   0.65050   0.17479   1.000
    C55     C    0.97244   0.65050   0.17479   1.000
    C56     C    0.35394   0.40474   0.32359   1.000
    C57     C    0.85392   0.40474   0.32359   1.000
    C58     C    0.43241   0.45247   0.36742   1.000
    C59     C    0.93239   0.45247   0.36742   1.000
    C60     C    0.47250   0.52524   0.34990   1.000
    C61     C    0.97248   0.52524   0.34990   1.000
    C62     C    0.10344   0.08160   0.40492   1.000
    C63     C    0.60342   0.08160   0.40492   1.000
    C64     C    0.18201   0.08521   0.45247   1.000
    C65     C    0.68200   0.08521   0.45247   1.000
    C66     C    0.22195   0.17518   0.52537   1.000
    C67     C    0.72194   0.17518   0.52537   1.000
    C68     C    0.10347   0.32350   0.91970   1.000
    C69     C    0.60346   0.32350   0.91970   1.000
    C70     C    0.18201   0.36719   0.91551   1.000
    C71     C    0.68199   0.36719   0.91551   1.000
    C72     C    0.22191   0.34958   0.82520   1.000
    C73     C    0.72189   0.34958   0.82520   1.000
    C74     C    0.10371   0.59547   0.67660   1.000
    C75     C    0.60369   0.59547   0.67660   1.000
    C76     C    0.18213   0.54768   0.63271   1.000
    C77     C    0.68212   0.54768   0.63272   1.000
    C78     C    0.22201   0.47478   0.65016   1.000
    C79     C    0.72200   0.47478   0.65016   1.000
    C80     C    0.10371   0.67661   0.59547   1.000
    C81     C    0.60369   0.67661   0.59540   1.000
    C82     C    0.18212   0.63271   0.54766   1.000
    C83     C    0.68211   0.63272   0.54767   1.000
    C84     C    0.22202   0.65018   0.47479   1.000
    C85     C    0.72200   0.65018   0.47479   1.000
    C86     C    0.10344   0.40493   0.08160   1.000
    C87     C    0.60342   0.40493   0.08160   1.000
    C88     C    0.18201   0.45249   0.08520   1.000
    C89     C    0.68199   0.45248   0.08520   1.000
    C90     C    0.22196   0.52537   0.17510   1.000
    C91     C    0.72194   0.52537   0.17510   1.000
    C92     C    0.10348   0.91970   0.32349   1.000
    C93     C    0.60346   0.91970   0.32349   1.000
    C94     C    0.18200   0.91552   0.36720   1.000
    C95     C    0.68198   0.91552   0.36720   1.000
    C96     C    0.22191   0.82521   0.34957   1.000
    C97     C    0.72190   0.82521   0.34957   1.000
    C98     C    0.35394   0.32359   0.40473   1.000
    C99     C    0.85392   0.32360   0.40470   1.000
    C100    C    0.43240   0.36743   0.45247   1.000
    C101    C    0.93239   0.36743   0.45247   1.000
    C102    C    0.47250   0.34990   0.52522   1.000
    C103    C    0.97249   0.34990   0.52522   1.000
    C104    C    0.35366   0.59507   0.91848   1.000
    C105    C    0.85365   0.59507   0.91848   1.000
    C106    C    0.43231   0.54762   0.91485   1.000
    C107    C    0.93229   0.54761   0.91485   1.000
    C108    C    0.47240   0.47481   0.82493   1.000
    C109    C    0.97239   0.47481   0.82493   1.000
    C110    C    0.35376   0.08041   0.67649   1.000
    C111    C    0.85374   0.08041   0.67649   1.000
    C112    C    0.43235   0.08456   0.63287   1.000
    C113    C    0.93234   0.08456   0.63287   1.000
    C114    C    0.47246   0.17480   0.65050   1.000
    C115    C    0.97244   0.17480   0.65000   1.000
    C116    C    0.47259   0.99983   0.56800   1.000
    C117    C    0.97258   0.99983   0.56802   1.000
    C118    C    0.47258   0.56801   0.99983   1.000
    C119    C    0.97257   0.56802   0.99983   1.000
    C120    C    0.47258   0.43231   0.43230   1.000
    C121    C    0.97257   0.43231   0.43231   1.000
    C122    C    0.22229   0.00022   0.43203   1.000
    C123    C    0.72228   0.00022   0.43203   1.000
    C124    C    0.22229   0.43204   0.00021   1.000
    C125    C    0.72227   0.43204   0.00021   1.000
    C126    C    0.22234   0.56786   0.56786   1.000
    C127    C    0.72232   0.56786   0.56785   1.000
    C128    C    0.31493   0.99931   0.65906   1.000
    C129    C    0.81491   0.99931   0.65906   1.000
    C130    C    0.31493   0.65907   0.99931   1.000
    C131    C    0.81491   0.65906   0.99931   1.000
    C132    C    0.31521   0.34078   0.34077   1.000
    C133    C    0.81520   0.34078   0.34077   1.000
    C134    C    0.06467   0.00080   0.34093   1.000
    C135    C    0.56465   0.00080   0.34093   1.000
    C136    C    0.06467   0.34094   0.00080   1.000
    C137    C    0.56465   0.34094   0.00080   1.000
    C138    C    0.06498   0.65944   0.65943   1.000
    C139    C    0.56497   0.65944   0.65944   1.000
    C140    C    0.43281   0.74476   0.44563   1.000
    C141    C    0.93279   0.74476   0.44563   1.000
    C142    C    0.04751   0.82690   0.44097   1.000
    C143    C    0.54749   0.82690   0.44097   1.000
    C144    C    0.43280   0.70163   0.25483   1.000
    C145    C    0.93279   0.70163   0.25483   1.000
    C146    C    0.04754   0.61483   0.17310   1.000
    C147    C    0.54752   0.61483   0.17310   1.000
    C148    C    0.43292   0.55434   0.29870   1.000
    C149    C    0.93290   0.55434   0.29870   1.000
    C150    C    0.04757   0.55913   0.38561   1.000
    C151    C    0.54756   0.55913   0.38561   1.000
    C152    C    0.18234   0.25526   0.55429   1.000
    C153    C    0.68233   0.25526   0.55429   1.000
    C154    C    0.29693   0.17330   0.55950   1.000
    C155    C    0.79691   0.17330   0.55950   1.000
    C156    C    0.18218   0.29832   0.74528   1.000
    C157    C    0.68217   0.29832   0.74528   1.000
    C158    C    0.29688   0.38540   0.82667   1.000
    C159    C    0.79687   0.38540   0.82667   1.000
    C160    C    0.18239   0.44593   0.70151   1.000
    C161    C    0.68237   0.44593   0.70151   1.000
    C162    C    0.29693   0.44054   0.61421   1.000
    C163    C    0.79691   0.44054   0.61421   1.000
    C164    C    0.18239   0.70152   0.44593   1.000
    C165    C    0.68237   0.70152   0.44593   1.000
    C166    C    0.29692   0.61421   0.44053   1.000
    C167    C    0.79691   0.61421   0.44050   1.000
    C168    C    0.18234   0.55430   0.25526   1.000
    C169    C    0.68233   0.55430   0.25526   1.000
    C170    C    0.29692   0.55951   0.17329   1.000
    C171    C    0.79691   0.55951   0.17329   1.000
    C172    C    0.18218   0.74529   0.29832   1.000
    C173    C    0.68217   0.74529   0.29832   1.000
    C174    C    0.29688   0.82668   0.38540   1.000
    C175    C    0.79687   0.82668   0.38540   1.000
    C176    C    0.43292   0.29871   0.55433   1.000
    C177    C    0.93290   0.29871   0.55433   1.000
    C178    C    0.04757   0.38562   0.55913   1.000
    C179    C    0.54756   0.38562   0.55913   1.000
    C180    C    0.43281   0.44563   0.74475   1.000
    C181    C    0.93279   0.44563   0.74475   1.000
    C182    C    0.04751   0.44097   0.82689   1.000
    C183    C    0.54749   0.44097   0.82600   1.000
    C184    C    0.43281   0.25483   0.70162   1.000
    C185    C    0.93279   0.25483   0.70162   1.000
    C186    C    0.04753   0.17319   0.61480   1.000
    C187    C    0.54752   0.17319   0.61480   1.000
    O188    O    0.20215   0.44226   0.04270   1.000
    O189    O    0.20215   0.39962   0.95786   1.000
    O190    O    0.25281   0.44967   0.00009   1.000
    O191    O    0.70213   0.44226   0.04270   1.000
    O192    O    0.70213   0.39962   0.95786   1.000
    O193    O    0.75279   0.44967   0.00009   1.000
    O194    O    0.08405   0.37293   0.04120   1.000
    O195    O    0.08407   0.33222   0.96025   1.000
    O196    O    0.58404   0.37293   0.04120   1.000
    O197    O    0.58405   0.33222   0.96025   1.000
    O198    O    0.39306   0.65469   0.08248   1.000
    O199    O    0.33729   0.70205   0.11295   1.000
    O200    O    0.33434   0.66778   0.03986   1.000
    O201    O    0.89304   0.65469   0.08248   1.000
    O202    O    0.83727   0.70204   0.11295   1.000
    O203    O    0.83433   0.66778   0.03986   1.000
    O204    O    0.64271   0.42871   0.08340   1.000
    O205    O    0.58692   0.41219   0.11426   1.000
    O206    O    0.14272   0.42871   0.08340   1.000
    O207    O    0.08694   0.41219   0.11426   1.000
    O208    O    0.95239   0.64169   0.12968   1.000
    O209    O    0.95246   0.60045   0.04220   1.000
    O210    O    0.45241   0.64169   0.12968   1.000
    O211    O    0.45247   0.60045   0.04220   1.000
    O212    O    0.20198   0.48893   0.13015   1.000
    O213    O    0.70197   0.48893   0.13015   1.000
    O214    O    0.50999   0.63266   0.17395   1.000
    O215    O    0.55734   0.64093   0.25315   1.000
    O216    O    0.00999   0.63266   0.17395   1.000
    O217    O    0.05735   0.64093   0.25315   1.000
    O218    O    0.25944   0.54244   0.17419   1.000
    O219    O    0.30708   0.61319   0.25316   1.000
    O220    O    0.75942   0.54244   0.17419   1.000
    O221    O    0.80707   0.61319   0.25316   1.000
    O222    O    0.95261   0.67606   0.21481   1.000
    O223    O    0.45263   0.67606   0.21481   1.000
    O224    O    0.70213   0.53983   0.21518   1.000
    O225    O    0.20215   0.53983   0.21518   1.000
    O226    O    0.87501   0.68425   0.29393   1.000
    O227    O    0.37502   0.68425   0.29393   1.000
    O228    O    0.62474   0.61066   0.29422   1.000
    O229    O    0.12476   0.61066   0.29422   1.000
    O230    O    0.58699   0.88716   0.29795   1.000
    O231    O    0.08700   0.88716   0.29795   1.000
    O232    O    0.33749   0.41186   0.29804   1.000
    O233    O    0.83747   0.41187   0.29805   1.000
    O234    O    0.12468   0.70616   0.31575   1.000
    O235    O    0.20205   0.78525   0.32394   1.000
    O236    O    0.62466   0.70616   0.31575   1.000
    O237    O    0.70203   0.78525   0.32394   1.000
    O238    O    0.37508   0.61061   0.31587   1.000
    O239    O    0.45271   0.53979   0.32430   1.000
    O240    O    0.87506   0.61061   0.31587   1.000
    O241    O    0.95269   0.53979   0.32430   1.000
    O242    O    0.58406   0.96025   0.33221   1.000
    O243    O    0.64272   0.91761   0.34535   1.000
    O244    O    0.08407   0.96025   0.33221   1.000
    O245    O    0.14274   0.91761   0.34535   1.000
    O246    O    0.33458   0.37276   0.33218   1.000
    O247    O    0.39317   0.42861   0.34551   1.000
    O248    O    0.83456   0.37276   0.33218   1.000
    O249    O    0.89316   0.42861   0.34551   1.000
    O250    O    0.30706   0.74678   0.35922   1.000
    O251    O    0.30708   0.64054   0.38678   1.000
    O252    O    0.37502   0.70582   0.38933   1.000
    O253    O    0.80704   0.74678   0.35922   1.000
    O254    O    0.80707   0.64054   0.38676   1.000
    O255    O    0.87501   0.70582   0.38933   1.000
    O256    O    0.55732   0.74697   0.38708   1.000
    O257    O    0.62477   0.68428   0.38956   1.000
    O258    O    0.05734   0.74697   0.38708   1.000
    O259    O    0.12478   0.68428   0.38956   1.000
    O260    O    0.33458   0.33218   0.37275   1.000
    O261    O    0.83456   0.33219   0.37274   1.000
    O262    O    0.08405   0.04120   0.37293   1.000
    O263    O    0.58404   0.04120   0.37293   1.000
    O264    O    0.20195   0.87036   0.35839   1.000
    O265    O    0.25940   0.82594   0.36749   1.000
    O266    O    0.70194   0.87036   0.35839   1.000
    O267    O    0.75938   0.82594   0.36749   1.000
    O268    O    0.95244   0.48885   0.35866   1.000
    O269    O    0.01003   0.54218   0.36776   1.000
    O270    O    0.45245   0.48885   0.35866   1.000
    O271    O    0.51003   0.54218   0.36776   1.000
    O272    O    0.70213   0.95787   0.39962   1.000
    O273    O    0.20215   0.95787   0.39962   1.000
    O274    O    0.45250   0.44239   0.39986   1.000
    O275    O    0.95248   0.44239   0.39986   1.000
    O276    O    0.04063   0.54599   0.39281   1.000
    O277    O    0.54062   0.54599   0.39281   1.000
    O278    O    0.83747   0.29804   0.41184   1.000
    O279    O    0.89316   0.34551   0.42858   1.000
    O280    O    0.33749   0.29804   0.41185   1.000
    O281    O    0.39317   0.34551   0.42860   1.000
    O282    O    0.08694   0.11426   0.41219   1.000
    O283    O    0.14273   0.08340   0.42869   1.000
    O284    O    0.58692   0.11426   0.41219   1.000
    O285    O    0.64271   0.08340   0.42869   1.000
    O286    O    0.20215   0.04271   0.44225   1.000
    O287    O    0.25281   0.00010   0.44966   1.000
    O288    O    0.70214   0.04271   0.44225   1.000
    O289    O    0.75279   0.00010   0.44962   1.000
    O290    O    0.45249   0.39987   0.44239   1.000
    O291    O    0.50306   0.45001   0.45000   1.000
    O292    O    0.95248   0.39987   0.44239   1.000
    O293    O    0.00306   0.45001   0.45001   1.000
    O294    O    0.75945   0.63219   0.45765   1.000
    O295    O    0.25947   0.63219   0.45766   1.000
    O296    O    0.00995   0.82592   0.45788   1.000
    O297    O    0.50994   0.82592   0.45788   1.000
    O298    O    0.45260   0.78485   0.46021   1.000
    O299    O    0.95259   0.78485   0.46021   1.000
    O300    O    0.20220   0.67585   0.46036   1.000
    O301    O    0.70219   0.67585   0.46036   1.000
    O302    O    0.70197   0.13019   0.48892   1.000
    O303    O    0.95244   0.35867   0.48885   1.000
    O304    O    0.45245   0.35867   0.48885   1.000
    O305    O    0.20198   0.13019   0.48892   1.000
    O306    O    0.20207   0.64144   0.51123   1.000
    O307    O    0.70206   0.64145   0.51123   1.000
    O308    O    0.45236   0.86990   0.51121   1.000
    O309    O    0.95234   0.86990   0.51121   1.000
    O310    O    0.95270   0.32430   0.53978   1.000
    O311    O    0.01003   0.36776   0.54218   1.000
    O312    O    0.45271   0.32430   0.53978   1.000
    O313    O    0.51003   0.36776   0.54218   1.000
    O314    O    0.70213   0.21522   0.53983   1.000
    O315    O    0.75942   0.17424   0.54244   1.000
    O316    O    0.20215   0.21522   0.53983   1.000
    O317    O    0.25944   0.17424   0.54244   1.000
    O318    O    0.75278   0.55014   0.55014   1.000
    O319    O    0.25280   0.55014   0.55014   1.000
    O320    O    0.50313   0.99994   0.55042   1.000
    O321    O    0.00313   0.99994   0.55043   1.000
    O322    O    0.45245   0.95735   0.55781   1.000
    O323    O    0.39299   0.91668   0.57135   1.000
    O324    O    0.95244   0.95735   0.55782   1.000
    O325    O    0.89297   0.91668   0.57135   1.000
    O326    O    0.20223   0.60029   0.55776   1.000
    O327    O    0.14292   0.65466   0.57157   1.000
    O328    O    0.70222   0.60029   0.55776   1.000
    O329    O    0.64290   0.65466   0.57154   1.000
    O330    O    0.12476   0.29423   0.61066   1.000
    O331    O    0.62474   0.29423   0.61066   1.000
    O332    O    0.37508   0.31587   0.61059   1.000
    O333    O    0.87506   0.31587   0.61059   1.000
    O334    O    0.05737   0.35940   0.61308   1.000
    O335    O    0.55736   0.35940   0.61308   1.000
    O336    O    0.80707   0.25317   0.61318   1.000
    O337    O    0.30708   0.25317   0.61318   1.000
    O338    O    0.70222   0.55777   0.60028   1.000
    O339    O    0.20224   0.55777   0.60028   1.000
    O340    O    0.45247   0.04220   0.60044   1.000
    O341    O    0.95246   0.04220   0.60045   1.000
    O342    O    0.83714   0.88585   0.58782   1.000
    O343    O    0.33715   0.88585   0.58783   1.000
    O344    O    0.58724   0.70215   0.58830   1.000
    O345    O    0.08726   0.70215   0.58833   1.000
    O346    O    0.83428   0.95890   0.62706   1.000
    O347    O    0.33430   0.95890   0.62706   1.000
    O348    O    0.58433   0.66803   0.62742   1.000
    O349    O    0.08435   0.66803   0.62745   1.000
    O350    O    0.25947   0.45766   0.63218   1.000
    O351    O    0.30708   0.38679   0.64054   1.000
    O352    O    0.75945   0.45766   0.63218   1.000
    O353    O    0.80707   0.38679   0.64054   1.000
    O354    O    0.50999   0.17399   0.63265   1.000
    O355    O    0.55734   0.25319   0.64092   1.000
    O356    O    0.00999   0.17399   0.63240   1.000
    O357    O    0.05735   0.25319   0.64092   1.000
    O358    O    0.20207   0.51123   0.64144   1.000
    O359    O    0.14292   0.57158   0.65465   1.000
    O360    O    0.70206   0.51123   0.64144   1.000
    O361    O    0.64290   0.57158   0.65466   1.000
    O362    O    0.95239   0.12968   0.64144   1.000
    O363    O    0.89304   0.08248   0.65468   1.000
    O364    O    0.45240   0.12968   0.64169   1.000
    O365    O    0.39306   0.08248   0.65468   1.000
    O366    O    0.95262   0.21482   0.67581   1.000
    O367    O    0.20220   0.46036   0.67584   1.000
    O368    O    0.70218   0.46036   0.67584   1.000
    O369    O    0.45263   0.21482   0.67606   1.000
    O370    O    0.33434   0.03986   0.66778   1.000
    O371    O    0.83433   0.03986   0.66778   1.000
    O372    O    0.08434   0.62746   0.66802   1.000
    O373    O    0.58433   0.62746   0.66802   1.000
    O374    O    0.87501   0.29393   0.68424   1.000
    O375    O    0.87501   0.38933   0.70581   1.000
    O376    O    0.80704   0.35922   0.74677   1.000
    O377    O    0.37502   0.29393   0.68424   1.000
    O378    O    0.37502   0.38933   0.70581   1.000
    O379    O    0.30706   0.35922   0.74677   1.000
    O380    O    0.62477   0.38956   0.68427   1.000
    O381    O    0.62466   0.31576   0.70615   1.000
    O382    O    0.55732   0.38708   0.74651   1.000
    O383    O    0.12478   0.38956   0.68427   1.000
    O384    O    0.12468   0.31576   0.70615   1.000
    O385    O    0.05734   0.38708   0.74696   1.000
    O386    O    0.83728   0.11295   0.70205   1.000
    O387    O    0.33730   0.11295   0.70205   1.000
    O388    O    0.08725   0.58833   0.70213   1.000
    O389    O    0.58724   0.58832   0.70213   1.000
    O390    O    0.45260   0.46022   0.78484   1.000
    O391    O    0.95259   0.46022   0.78484   1.000
    O392    O    0.20204   0.32395   0.78524   1.000
    O393    O    0.70203   0.32395   0.78524   1.000
    O394    O    0.50994   0.45789   0.82547   1.000
    O395    O    0.45236   0.51121   0.86989   1.000
    O396    O    0.00995   0.45789   0.82591   1.000
    O397    O    0.95234   0.51121   0.86989   1.000
    O398    O    0.75938   0.36749   0.82594   1.000
    O399    O    0.70194   0.35839   0.87035   1.000
    O400    O    0.25939   0.36749   0.82594   1.000
    O401    O    0.20196   0.35839   0.87035   1.000
    O402    O    0.83714   0.58783   0.88584   1.000
    O403    O    0.33715   0.58783   0.88584   1.000
    O404    O    0.58698   0.29796   0.88716   1.000
    O405    O    0.08700   0.29796   0.88716   1.000
    O406    O    0.89297   0.57134   0.91666   1.000
    O407    O    0.95243   0.55782   0.95734   1.000
    O408    O    0.39299   0.57134   0.91666   1.000
    O409    O    0.45245   0.55782   0.95734   1.000
    O410    O    0.14274   0.34535   0.91761   1.000
    O411    O    0.64272   0.34535   0.91761   1.000
    O412    O    0.83428   0.62707   0.95890   1.000
    O413    O    0.33430   0.62707   0.95890   1.000
    O414    O    0.49998   0.70590   0.38941   1.000
    O415    O    0.99998   0.70590   0.38941   1.000
    O416    O    0.49998   0.68433   0.29401   1.000
    O417    O    0.99998   0.68433   0.29401   1.000
    O418    O    0.50004   0.61069   0.31595   1.000
    O419    O    0.00004   0.61069   0.31595   1.000
    O420    O    0.05737   0.61308   0.35940   1.000
    O421    O    0.55736   0.61308   0.35940   1.000
    O422    O    0.24979   0.29415   0.61057   1.000
    O423    O    0.74977   0.29415   0.61057   1.000
    O424    O    0.24971   0.31568   0.70607   1.000
    O425    O    0.74969   0.31568   0.70607   1.000
    O426    O    0.24981   0.38948   0.68418   1.000
    O427    O    0.74980   0.38948   0.68418   1.000
    O428    O    0.24981   0.68419   0.38948   1.000
    O429    O    0.74980   0.68419   0.38948   1.000
    O430    O    0.24979   0.61058   0.29414   1.000
    O431    O    0.74978   0.61058   0.29414   1.000
    O432    O    0.24971   0.70608   0.31567   1.000
    O433    O    0.74970   0.70608   0.31567   1.000
    O434    O    0.50004   0.31595   0.61068   1.000
    O435    O    0.00004   0.31595   0.61068   1.000
    O436    O    0.49998   0.38941   0.70589   1.000
    O437    O    0.99998   0.38941   0.70589   1.000
    O438    O    0.49998   0.29401   0.68433   1.000
    O439    O    0.99998   0.29401   0.68433   1.000
loop_
    _geom_bond_atom_site_label_1
    _geom_bond_atom_site_label_2
    _geom_bond_distance
    _geom_bond_site_symmetry_2
    _ccdc_geom_bond_type
    C124   O188      0.69780      .   S
    C88    O188      0.69780      .   S
    C124   O189      0.69779  1_554   S
    C70    O189      0.69779      .   S
    C124   O190      0.54372      .   S
    C40    O190      0.54372  1_556   S
    C125   O191      0.69780      .   S
    C89    O191      0.69780      .   S
    C125   O192      0.69779  1_554   S
    C71    O192      0.69779      .   S
    C125   O193      0.54372      .   S
    C41    O193      0.54372  1_556   S
    C136   O194      0.67161      .   S
    C86    O194      0.67161      .   S
    C136   O195      0.67159  1_554   S
    C68    O195      0.67159      .   S
    C137   O196      0.67161      .   S
    C87    O196      0.67161      .   S
    C137   O197      0.67159  1_554   S
    C69    O197      0.67159      .   S
    C50    O198      0.70148      .   S
    C52    O198      0.70148      .   S
    C50    O199      0.54573      .   S
    C10    O199      0.54573      .   S
    C50    O200      0.67160      .   S
    C130   O200      0.67160  1_556   S
    C51    O201      0.70149      .   S
    C53    O201      0.70149      .   S
    C51    O202      0.54573      .   S
    C11    O202      0.54573      .   S
    C51    O203      0.67160      .   S
    C131   O203      0.67160  1_556   S
    C87    O204      0.70147      .   S
    C89    O204      0.70147      .   S
    C87    O205      0.54571      .   S
    C23    O205      0.54571      .   S
    C86    O206      0.70147      .   S
    C88    O206      0.70147      .   S
    C86    O207      0.54572      .   S
    C22    O207      0.54572      .   S
    C53    O208      0.74159      .   S
    C55    O208      0.74159      .   S
    C53    O209      0.69781      .   S
    C119   O209      0.69781  1_556   S
    C52    O210      0.74159      .   S
    C54    O210      0.74159      .   S
    C52    O211      0.69781      .   S
    C118   O211      0.69781  1_556   S
    C88    O212      0.74123      .   S
    C90    O212      0.74123      .   S
    C89    O213      0.74124      .   S
    C91    O213      0.74124      .   S
    C147   O214      0.63415      .   S
    C54    O214      0.63415      .   S
    C147   O215      1.16566      .   S
    C1     O215      1.16566      .   S
    C146   O216      0.63436      .   S
    C55    O216      0.63436  1_655   S
    C146   O217      1.16566      .   S
    C0     O217      1.16566      .   S
    C170   O218      0.63428      .   S
    C90    O218      0.63428      .   S
    C170   O219      1.16451      .   S
    C4     O219      1.16451      .   S
    C171   O220      0.63428      .   S
    C91    O220      0.63428      .   S
    C171   O221      1.16451      .   S
    C5     O221      1.16451      .   S
    C55    O222      0.64780      .   S
    C145   O222      0.64780      .   S
    C54    O223      0.64780      .   S
    C144   O223      0.64780      .   S
    C91    O224      0.64805      .   S
    C169   O224      0.64805      .   S
    C90    O225      0.64805      .   S
    C168   O225      0.64805      .   S
    C145   O226      1.19585      .   S
    C5     O226      1.19585      .   S
    C144   O227      1.19586      .   S
    C4     O227      1.19586      .   S
    C169   O228      1.19395      .   S
    C1     O228      1.19395      .   S
    C168   O229      1.19396      .   S
    C0     O229      1.19396      .   S
    C25    O230      0.54570      .   S
    C93    O230      0.54570      .   S
    C24    O231      0.54570      .   S
    C92    O231      0.54570      .   S
    C12    O232      0.54573      .   S
    C56    O232      0.54573      .   S
    C13    O233      0.54566      .   S
    C57    O233      0.54566      .   S
    C172   O234      1.19357      .   S
    C0     O234      1.19357      .   S
    C172   O235      0.64751      .   S
    C96    O235      0.64751      .   S
    C173   O236      1.19357      .   S
    C1     O236      1.19357      .   S
    C173   O237      0.64751      .   S
    C97    O237      0.64751      .   S
    C148   O238      1.19555      .   S
    C4     O238      1.19555      .   S
    C148   O239      0.64783      .   S
    C60    O239      0.64783      .   S
    C149   O240      1.19556      .   S
    C5     O240      1.19556      .   S
    C149   O241      0.64782      .   S
    C61    O241      0.64782      .   S
    C93    O242      0.67157      .   S
    C135   O242      0.67157  1_545   S
    C93    O243      0.70146      .   S
    C95    O243      0.70146      .   S
    C92    O244      0.67156      .   S
    C134   O244      0.67156  1_545   S
    C92    O245      0.70146      .   S
    C94    O245      0.70146      .   S
    C56    O246      0.67165      .   S
    C132   O246      0.67165      .   S
    C56    O247      0.70146      .   S
    C58    O247      0.70146      .   S
    C57    O248      0.67166      .   S
    C133   O248      0.67166      .   S
    C57    O249      0.70147      .   S
    C59    O249      0.70147      .   S
    C4     O250      1.16400      .   S
    C174   O250      1.16400      .   S
    C4     O251      1.16431      .   S
    C166   O251      1.16431      .   S
    C4     O252      1.19547      .   S
    C140   O252      1.19547      .   S
    C5     O253      1.16400      .   S
    C175   O253      1.16400      .   S
    C5     O254      1.16409      .   S
    C167   O254      1.16409      .   S
    C5     O255      1.19547      .   S
    C141   O255      1.19547      .   S
    C1     O256      1.16534      .   S
    C143   O256      1.16534      .   S
    C1     O257      1.19394      .   S
    C165   O257      1.19394      .   S
    C0     O258      1.16534      .   S
    C142   O258      1.16534      .   S
    C0     O259      1.19395      .   S
    C164   O259      1.19395      .   S
    C132   O260      0.67166      .   S
    C98    O260      0.67166      .   S
    C133   O261      0.67142      .   S
    C99    O261      0.67142      .   S
    C134   O262      0.67164      .   S
    C62    O262      0.67164      .   S
    C135   O263      0.67164      .   S
    C63    O263      0.67164      .   S
    C96    O264      0.74162      .   S
    C94    O264      0.74162      .   S
    C96    O265      0.63441      .   S
    C174   O265      0.63441      .   S
    C97    O266      0.74162      .   S
    C95    O266      0.74162      .   S
    C97    O267      0.63441      .   S
    C175   O267      0.63441      .   S
    C61    O268      0.74162      .   S
    C59    O268      0.74162      .   S
    C61    O269      0.63449  1_655   S
    C150   O269      0.63449      .   S
    C60    O270      0.74160      .   S
    C58    O270      0.74160      .   S
    C60    O271      0.63429      .   S
    C151   O271      0.63429      .   S
    C95    O272      0.69777      .   S
    C123   O272      0.69777  1_545   S
    C94    O273      0.69777      .   S
    C122   O273      0.69777  1_545   S
    C58    O274      0.69774      .   S
    C120   O274      0.69774      .   S
    C59    O275      0.69778      .   S
    C121   O275      0.69778      .   S
    C150   O276      0.30989      .   S
    C34    O276      0.30989      .   S
    C151   O277      0.30989      .   S
    C35    O277      0.30989      .   S
    C99    O278      0.54585      .   S
    C27    O278      0.54585      .   S
    C99    O279      0.70153      .   S
    C101   O279      0.70153      .   S
    C98    O280      0.54570      .   S
    C26    O280      0.54570      .   S
    C98    O281      0.70145      .   S
    C100   O281      0.70145      .   S
    C62    O282      0.54569      .   S
    C14    O282      0.54569      .   S
    C62    O283      0.70146      .   S
    C64    O283      0.70146      .   S
    C63    O284      0.54569      .   S
    C15    O284      0.54569      .   S
    C63    O285      0.70146      .   S
    C65    O285      0.70146      .   S
    C122   O286      0.69781      .   S
    C64    O286      0.69781      .   S
    C122   O287      0.54376      .   S
    C38    O287      0.54376  1_565   S
    C123   O288      0.69781      .   S
    C65    O288      0.69781      .   S
    C123   O289      0.54337      .   S
    C39    O289      0.54337  1_565   S
    C120   O290      0.69777      .   S
    C100   O290      0.69777      .   S
    C120   O291      0.54372      .   S
    C37    O291      0.54372      .   S
    C121   O292      0.69774      .   S
    C101   O292      0.69774      .   S
    C121   O293      0.54390  1_655   S
    C36    O293      0.54390      .   S
    C167   O294      0.63446      .   S
    C85    O294      0.63446      .   S
    C166   O295      0.63440      .   S
    C84    O295      0.63440      .   S
    C142   O296      0.63451      .   S
    C49    O296      0.63451  1_655   S
    C143   O297      0.63430      .   S
    C48    O297      0.63430      .   S
    C140   O298      0.64780      .   S
    C48    O298      0.64780      .   S
    C141   O299      0.64780      .   S
    C49    O299      0.64780      .   S
    C164   O300      0.64756      .   S
    C84    O300      0.64756      .   S
    C165   O301      0.64756      .   S
    C85    O301      0.64756      .   S
    C65    O302      0.74159      .   S
    C67    O302      0.74159      .   S
    C101   O303      0.74161      .   S
    C103   O303      0.74161      .   S
    C100   O304      0.74161      .   S
    C102   O304      0.74161      .   S
    C64    O305      0.74159      .   S
    C66    O305      0.74159      .   S
    C84    O306      0.74153      .   S
    C82    O306      0.74153      .   S
    C85    O307      0.74158      .   S
    C83    O307      0.74158      .   S
    C48    O308      0.74159      .   S
    C46    O308      0.74159      .   S
    C49    O309      0.74160      .   S
    C47    O309      0.74160      .   S
    C103   O310      0.64781      .   S
    C177   O310      0.64781      .   S
    C103   O311      0.63449  1_655   S
    C178   O311      0.63449      .   S
    C102   O312      0.64781      .   S
    C176   O312      0.64781      .   S
    C102   O313      0.63429      .   S
    C179   O313      0.63429      .   S
    C67    O314      0.64755      .   S
    C153   O314      0.64755      .   S
    C67    O315      0.63440      .   S
    C155   O315      0.63440      .   S
    C66    O316      0.64755      .   S
    C152   O316      0.64755      .   S
    C66    O317      0.63440      .   S
    C154   O317      0.63440      .   S
    C43    O318      0.54373      .   S
    C127   O318      0.54373      .   S
    C42    O319      0.54373      .   S
    C126   O319      0.54373      .   S
    C33    O320      0.54365  1_545   S
    C116   O320      0.54365      .   S
    C32    O321      0.54392  1_545   S
    C117   O321      0.54392  1_655   S
    C46    O322      0.69778      .   S
    C116   O322      0.69778      .   S
    C46    O323      0.70148      .   S
    C44    O323      0.70148      .   S
    C47    O324      0.69775      .   S
    C117   O324      0.69775      .   S
    C47    O325      0.70147      .   S
    C45    O325      0.70147      .   S
    C82    O326      0.69784      .   S
    C126   O326      0.69784      .   S
    C82    O327      0.70145      .   S
    C80    O327      0.70145      .   S
    C83    O328      0.69777      .   S
    C127   O328      0.69777      .   S
    C83    O329      0.70128      .   S
    C81    O329      0.70128      .   S
    C152   O330      1.19394      .   S
    C6     O330      1.19394      .   S
    C153   O331      1.19393      .   S
    C7     O331      1.19393      .   S
    C176   O332      1.19560      .   S
    C2     O332      1.19560      .   S
    C177   O333      1.19560      .   S
    C3     O333      1.19560      .   S
    C178   O334      1.16527      .   S
    C6     O334      1.16527      .   S
    C179   O335      1.16527      .   S
    C7     O335      1.16527      .   S
    C155   O336      1.16446      .   S
    C3     O336      1.16446      .   S
    C154   O337      1.16446      .   S
    C2     O337      1.16446      .   S
    C127   O338      0.69783      .   S
    C77    O338      0.69783      .   S
    C126   O339      0.69775      .   S
    C76    O339      0.69775      .   S
    C116   O340      0.69782  1_565   S
    C112   O340      0.69782      .   S
    C117   O341      0.69779  1_565   S
    C113   O341      0.69779      .   S
    C9     O342      0.54568      .   S
    C45    O342      0.54568      .   S
    C8     O343      0.54570      .   S
    C44    O343      0.54570      .   S
    C21    O344      0.54537      .   S
    C81    O344      0.54537      .   S
    C20    O345      0.54569      .   S
    C80    O345      0.54569      .   S
    C45    O346      0.67160      .   S
    C129   O346      0.67160      .   S
    C44    O347      0.67159      .   S
    C128   O347      0.67159      .   S
    C81    O348      0.67213      .   S
    C139   O348      0.67213      .   S
    C80    O349      0.67160      .   S
    C138   O349      0.67160      .   S
    C162   O350      0.63438      .   S
    C78    O350      0.63438      .   S
    C162   O351      1.16433      .   S
    C2     O351      1.16433      .   S
    C163   O352      0.63438      .   S
    C79    O352      0.63438      .   S
    C163   O353      1.16434      .   S
    C3     O353      1.16434      .   S
    C187   O354      0.63437      .   S
    C114   O354      0.63437      .   S
    C187   O355      1.16497      .   S
    C7     O355      1.16497      .   S
    C186   O356      0.63275      .   S
    C115   O356      0.63275  1_655   S
    C186   O357      1.16497      .   S
    C6     O357      1.16497      .   S
    C76    O358      0.74160      .   S
    C78    O358      0.74160      .   S
    C76    O359      0.70145      .   S
    C74    O359      0.70145      .   S
    C77    O360      0.74158      .   S
    C79    O360      0.74158      .   S
    C77    O361      0.70144      .   S
    C75    O361      0.70144      .   S
    C113   O362      0.74286      .   S
    C115   O362      0.74286      .   S
    C113   O363      0.70145      .   S
    C111   O363      0.70145      .   S
    C112   O364      0.74161      .   S
    C114   O364      0.74161      .   S
    C112   O365      0.70147      .   S
    C110   O365      0.70147      .   S
    C115   O366      0.64838      .   S
    C185   O366      0.64838      .   S
    C78    O367      0.64756      .   S
    C160   O367      0.64756      .   S
    C79    O368      0.64756      .   S
    C161   O368      0.64756      .   S
    C114   O369      0.64778      .   S
    C184   O369      0.64778      .   S
    C128   O370      0.67164  1_565   S
    C110   O370      0.67164      .   S
    C129   O371      0.67164  1_565   S
    C111   O371      0.67164      .   S
    C138   O372      0.67163      .   S
    C74    O372      0.67163      .   S
    C139   O373      0.67162      .   S
    C75    O373      0.67162      .   S
    C3     O374      1.19587      .   S
    C185   O374      1.19587      .   S
    C3     O375      1.19550      .   S
    C181   O375      1.19550      .   S
    C3     O376      1.16397      .   S
    C159   O376      1.16397      .   S
    C2     O377      1.19587      .   S
    C184   O377      1.19587      .   S
    C2     O378      1.19550      .   S
    C180   O378      1.19550      .   S
    C2     O379      1.16397      .   S
    C158   O379      1.16397      .   S
    C7     O380      1.19393      .   S
    C161   O380      1.19393      .   S
    C7     O381      1.19351      .   S
    C157   O381      1.19351      .   S
    C7     O382      1.15990      .   S
    C183   O382      1.15990      .   S
    C6     O383      1.19393      .   S
    C160   O383      1.19393      .   S
    C6     O384      1.19351      .   S
    C156   O384      1.19351      .   S
    C6     O385      1.16530      .   S
    C182   O385      1.16530      .   S
    C111   O386      0.54571      .   S
    C31    O386      0.54571      .   S
    C110   O387      0.54570      .   S
    C30    O387      0.54570      .   S
    C74    O388      0.54575      .   S
    C18    O388      0.54575      .   S
    C75    O389      0.54572      .   S
    C19    O389      0.54572      .   S
    C180   O390      0.64782      .   S
    C108   O390      0.64782      .   S
    C181   O391      0.64782      .   S
    C109   O391      0.64782      .   S
    C156   O392      0.64754      .   S
    C72    O392      0.64754      .   S
    C157   O393      0.64754      .   S
    C73    O393      0.64754      .   S
    C108   O394      0.63255      .   S
    C183   O394      0.63255      .   S
    C108   O395      0.74159      .   S
    C106   O395      0.74159      .   S
    C109   O396      0.63448  1_655   S
    C182   O396      0.63448      .   S
    C109   O397      0.74159      .   S
    C107   O397      0.74159      .   S
    C73    O398      0.63444      .   S
    C159   O398      0.63444      .   S
    C73    O399      0.74160      .   S
    C71    O399      0.74160      .   S
    C72    O400      0.63444      .   S
    C158   O400      0.63444      .   S
    C72    O401      0.74159      .   S
    C70    O401      0.74159      .   S
    C29    O402      0.54566      .   S
    C105   O402      0.54566      .   S
    C28    O403      0.54566      .   S
    C104   O403      0.54566      .   S
    C17    O404      0.54574      .   S
    C69    O404      0.54574      .   S
    C16    O405      0.54574      .   S
    C68    O405      0.54574      .   S
    C107   O406      0.70147      .   S
    C105   O406      0.70147      .   S
    C107   O407      0.69777      .   S
    C119   O407      0.69777      .   S
    C106   O408      0.70148      .   S
    C104   O408      0.70148      .   S
    C106   O409      0.69777      .   S
    C118   O409      0.69777      .   S
    C70    O410      0.70148      .   S
    C68    O410      0.70148      .   S
    C71    O411      0.70148      .   S
    C69    O411      0.70148      .   S
    C105   O412      0.67167      .   S
    C131   O412      0.67167      .   S
    C104   O413      0.67167      .   S
    C130   O413      0.67167      .   S
    C140   O414      1.30176      .   S
    C1     O414      1.30176      .   S
    C141   O415      1.30194      .   S
    C0     O415      1.30194  1_455   S
    C144   O416      1.30305      .   S
    C1     O416      1.30305      .   S
    C145   O417      1.30324      .   S
    C0     O417      1.30324  1_455   S
    C148   O418      1.30198      .   S
    C1     O418      1.30198      .   S
    C149   O419      1.30216  1_655   S
    C0     O419      1.30216      .   S
    C150   O420      1.16523      .   S
    C0     O420      1.16523      .   S
    C151   O421      1.16524      .   S
    C1     O421      1.16524      .   S
    C152   O422      1.30547      .   S
    C2     O422      1.30547      .   S
    C153   O423      1.30547      .   S
    C3     O423      1.30547      .   S
    C156   O424      1.30794      .   S
    C2     O424      1.30794      .   S
    C157   O425      1.30794      .   S
    C3     O425      1.30794      .   S
    C160   O426      1.30645      .   S
    C2     O426      1.30645      .   S
    C161   O427      1.30645      .   S
    C3     O427      1.30645      .   S
    C164   O428      1.30645      .   S
    C4     O428      1.30645      .   S
    C165   O429      1.30646      .   S
    C5     O429      1.30646      .   S
    C168   O430      1.30549      .   S
    C4     O430      1.30549      .   S
    C169   O431      1.30550      .   S
    C5     O431      1.30550      .   S
    C172   O432      1.30796      .   S
    C4     O432      1.30796      .   S
    C173   O433      1.30796      .   S
    C5     O433      1.30796      .   S
    C176   O434      1.30204      .   S
    C7     O434      1.30204      .   S
    C177   O435      1.30221  1_655   S
    C6     O435      1.30221      .   S
    C180   O436      1.30177      .   S
    C7     O436      1.30177      .   S
    C181   O437      1.30195      .   S
    C6     O437      1.30195  1_455   S
    C184   O438      1.30303      .   S
    C7     O438      1.30303      .   S
    C185   O439      1.30321      .   S
    C6     O439      1.30321  1_455   S
