# CIF file generated by openbabel 2.4.90, see http://openbabel.sf.net
data_I
_chemical_name_common ''
_cell_length_a 15.096
_cell_length_b 16.337
_cell_length_c 16.337
_cell_angle_alpha 119.849
_cell_angle_beta 90.001
_cell_angle_gamma 90.001
_space_group_name_H-M_alt 'P 1'
_space_group_name_Hall 'P 1'
loop_
    _symmetry_equiv_pos_as_xyz
    x,y,z
loop_
    _atom_site_label
    _atom_site_type_symbol
    _atom_site_fract_x
    _atom_site_fract_y
    _atom_site_fract_z
    _atom_site_occupancy
    Zr0     Zr   0.06717   0.66703   0.33319   1.000
    Zr1     Zr   0.56716   0.66703   0.33319   1.000
    Zr2     Zr   0.31724   0.33303   0.66686   1.000
    Zr3     Zr   0.81722   0.33303   0.66686   1.000
    Zr4     Zr   0.31724   0.66687   0.33303   1.000
    Zr5     Zr   0.81722   0.66687   0.33303   1.000
    Zr6     Zr   0.06717   0.33319   0.66703   1.000
    Zr7     Zr   0.56716   0.33319   0.66703   1.000
    Zr8     Zr   0.03369   0.53284   0.40000   1.000
    Zr9     Zr   0.53367   0.53284   0.40000   1.000
    Zr10    Zr   0.47240   0.82494   0.47480   1.000
    Zr11    Zr   0.97238   0.82494   0.47480   1.000
    Zr12    Zr   0.47245   0.65050   0.17479   1.000
    Zr13    Zr   0.97244   0.65050   0.17479   1.000
    Zr14    Zr   0.47250   0.52524   0.34990   1.000
    Zr15    Zr   0.97248   0.52524   0.34990   1.000
    Zr16    Zr   0.22195   0.17518   0.52537   1.000
    Zr17    Zr   0.72194   0.17518   0.52537   1.000
    Zr18    Zr   0.22191   0.34958   0.82520   1.000
    Zr19    Zr   0.72189   0.34958   0.82520   1.000
    Zr20    Zr   0.22201   0.47478   0.65016   1.000
    Zr21    Zr   0.72200   0.47478   0.65016   1.000
    Zr22    Zr   0.22202   0.65018   0.47479   1.000
    Zr23    Zr   0.72200   0.65018   0.47479   1.000
    Zr24    Zr   0.22196   0.52537   0.17510   1.000
    Zr25    Zr   0.72194   0.52537   0.17510   1.000
    Zr26    Zr   0.22191   0.82521   0.34957   1.000
    Zr27    Zr   0.72190   0.82521   0.34957   1.000
    Zr28    Zr   0.47250   0.34990   0.52522   1.000
    Zr29    Zr   0.97249   0.34990   0.52522   1.000
    Zr30    Zr   0.47240   0.47481   0.82493   1.000
    Zr31    Zr   0.97239   0.47481   0.82493   1.000
    Zr32    Zr   0.47246   0.17480   0.65050   1.000
    Zr33    Zr   0.97244   0.17480   0.65000   1.000
    Zr34    Zr   0.43281   0.74476   0.44563   1.000
    Zr35    Zr   0.93279   0.74476   0.44563   1.000
    Zr36    Zr   0.04751   0.82690   0.44097   1.000
    Zr37    Zr   0.54749   0.82690   0.44097   1.000
    Zr38    Zr   0.43280   0.70163   0.25483   1.000
    Zr39    Zr   0.93279   0.70163   0.25483   1.000
    Zr40    Zr   0.04754   0.61483   0.17310   1.000
    Zr41    Zr   0.54752   0.61483   0.17310   1.000
    Zr42    Zr   0.43292   0.55434   0.29870   1.000
    Zr43    Zr   0.93290   0.55434   0.29870   1.000
    Zr44    Zr   0.04757   0.55913   0.38561   1.000
    Zr45    Zr   0.54756   0.55913   0.38561   1.000
    Zr46    Zr   0.18234   0.25526   0.55429   1.000
    Zr47    Zr   0.68233   0.25526   0.55429   1.000
    Zr48    Zr   0.29693   0.17330   0.55950   1.000
    Zr49    Zr   0.79691   0.17330   0.55950   1.000
    Zr50    Zr   0.18218   0.29832   0.74528   1.000
    Zr51    Zr   0.68217   0.29832   0.74528   1.000
    Zr52    Zr   0.29688   0.38540   0.82667   1.000
    Zr53    Zr   0.79687   0.38540   0.82667   1.000
    Zr54    Zr   0.18239   0.44593   0.70151   1.000
    Zr55    Zr   0.68237   0.44593   0.70151   1.000
    Zr56    Zr   0.29693   0.44054   0.61421   1.000
    Zr57    Zr   0.79691   0.44054   0.61421   1.000
    Zr58    Zr   0.18239   0.70152   0.44593   1.000
    Zr59    Zr   0.68237   0.70152   0.44593   1.000
    Zr60    Zr   0.29692   0.61421   0.44053   1.000
    Zr61    Zr   0.79691   0.61421   0.44050   1.000
    Zr62    Zr   0.18234   0.55430   0.25526   1.000
    Zr63    Zr   0.68233   0.55430   0.25526   1.000
    Zr64    Zr   0.29692   0.55951   0.17329   1.000
    Zr65    Zr   0.79691   0.55951   0.17329   1.000
    Zr66    Zr   0.18218   0.74529   0.29832   1.000
    Zr67    Zr   0.68217   0.74529   0.29832   1.000
    Zr68    Zr   0.29688   0.82668   0.38540   1.000
    Zr69    Zr   0.79687   0.82668   0.38540   1.000
    Zr70    Zr   0.43292   0.29871   0.55433   1.000
    Zr71    Zr   0.93290   0.29871   0.55433   1.000
    Zr72    Zr   0.04757   0.38562   0.55913   1.000
    Zr73    Zr   0.54756   0.38562   0.55913   1.000
    Zr74    Zr   0.43281   0.44563   0.74475   1.000
    Zr75    Zr   0.93279   0.44563   0.74475   1.000
    Zr76    Zr   0.04751   0.44097   0.82689   1.000
    Zr77    Zr   0.54749   0.44097   0.82600   1.000
    Zr78    Zr   0.43281   0.25483   0.70162   1.000
    Zr79    Zr   0.93279   0.25483   0.70162   1.000
    Zr80    Zr   0.04753   0.17319   0.61480   1.000
    Zr81    Zr   0.54752   0.17319   0.61480   1.000
    O82     O    0.50999   0.63266   0.17395   1.000
    O83     O    0.55734   0.64093   0.25315   1.000
    O84     O    0.00999   0.63266   0.17395   1.000
    O85     O    0.05735   0.64093   0.25315   1.000
    O86     O    0.25944   0.54244   0.17419   1.000
    O87     O    0.30708   0.61319   0.25316   1.000
    O88     O    0.75942   0.54244   0.17419   1.000
    O89     O    0.80707   0.61319   0.25316   1.000
    O90     O    0.95261   0.67606   0.21481   1.000
    O91     O    0.45263   0.67606   0.21481   1.000
    O92     O    0.70213   0.53983   0.21518   1.000
    O93     O    0.20215   0.53983   0.21518   1.000
    O94     O    0.87501   0.68425   0.29393   1.000
    O95     O    0.37502   0.68425   0.29393   1.000
    O96     O    0.62474   0.61066   0.29422   1.000
    O97     O    0.12476   0.61066   0.29422   1.000
    O98     O    0.12468   0.70616   0.31575   1.000
    O99     O    0.20205   0.78525   0.32394   1.000
    O100    O    0.62466   0.70616   0.31575   1.000
    O101    O    0.70203   0.78525   0.32394   1.000
    O102    O    0.37508   0.61061   0.31587   1.000
    O103    O    0.45271   0.53979   0.32430   1.000
    O104    O    0.87506   0.61061   0.31587   1.000
    O105    O    0.95269   0.53979   0.32430   1.000
    O106    O    0.30706   0.74678   0.35922   1.000
    O107    O    0.30708   0.64054   0.38678   1.000
    O108    O    0.37502   0.70582   0.38933   1.000
    O109    O    0.80704   0.74678   0.35922   1.000
    O110    O    0.80707   0.64054   0.38676   1.000
    O111    O    0.87501   0.70582   0.38933   1.000
    O112    O    0.55732   0.74697   0.38708   1.000
    O113    O    0.62477   0.68428   0.38956   1.000
    O114    O    0.05734   0.74697   0.38708   1.000
    O115    O    0.12478   0.68428   0.38956   1.000
    O116    O    0.25940   0.82594   0.36749   1.000
    O117    O    0.75938   0.82594   0.36749   1.000
    O118    O    0.01003   0.54218   0.36776   1.000
    O119    O    0.51003   0.54218   0.36776   1.000
    O120    O    0.04063   0.54599   0.39281   1.000
    O121    O    0.54062   0.54599   0.39281   1.000
    O122    O    0.75945   0.63219   0.45765   1.000
    O123    O    0.25947   0.63219   0.45766   1.000
    O124    O    0.00995   0.82592   0.45788   1.000
    O125    O    0.50994   0.82592   0.45788   1.000
    O126    O    0.45260   0.78485   0.46021   1.000
    O127    O    0.95259   0.78485   0.46021   1.000
    O128    O    0.20220   0.67585   0.46036   1.000
    O129    O    0.70219   0.67585   0.46036   1.000
    O130    O    0.95270   0.32430   0.53978   1.000
    O131    O    0.01003   0.36776   0.54218   1.000
    O132    O    0.45271   0.32430   0.53978   1.000
    O133    O    0.51003   0.36776   0.54218   1.000
    O134    O    0.70213   0.21522   0.53983   1.000
    O135    O    0.75942   0.17424   0.54244   1.000
    O136    O    0.20215   0.21522   0.53983   1.000
    O137    O    0.25944   0.17424   0.54244   1.000
    O138    O    0.12476   0.29423   0.61066   1.000
    O139    O    0.62474   0.29423   0.61066   1.000
    O140    O    0.37508   0.31587   0.61059   1.000
    O141    O    0.87506   0.31587   0.61059   1.000
    O142    O    0.05737   0.35940   0.61308   1.000
    O143    O    0.55736   0.35940   0.61308   1.000
    O144    O    0.80707   0.25317   0.61318   1.000
    O145    O    0.30708   0.25317   0.61318   1.000
    O146    O    0.25947   0.45766   0.63218   1.000
    O147    O    0.30708   0.38679   0.64054   1.000
    O148    O    0.75945   0.45766   0.63218   1.000
    O149    O    0.80707   0.38679   0.64054   1.000
    O150    O    0.50999   0.17399   0.63265   1.000
    O151    O    0.55734   0.25319   0.64092   1.000
    O152    O    0.00999   0.17399   0.63240   1.000
    O153    O    0.05735   0.25319   0.64092   1.000
    O154    O    0.95262   0.21482   0.67581   1.000
    O155    O    0.20220   0.46036   0.67584   1.000
    O156    O    0.70218   0.46036   0.67584   1.000
    O157    O    0.45263   0.21482   0.67606   1.000
    O158    O    0.87501   0.29393   0.68424   1.000
    O159    O    0.87501   0.38933   0.70581   1.000
    O160    O    0.80704   0.35922   0.74677   1.000
    O161    O    0.37502   0.29393   0.68424   1.000
    O162    O    0.37502   0.38933   0.70581   1.000
    O163    O    0.30706   0.35922   0.74677   1.000
    O164    O    0.62477   0.38956   0.68427   1.000
    O165    O    0.62466   0.31576   0.70615   1.000
    O166    O    0.55732   0.38708   0.74651   1.000
    O167    O    0.12478   0.38956   0.68427   1.000
    O168    O    0.12468   0.31576   0.70615   1.000
    O169    O    0.05734   0.38708   0.74696   1.000
    O170    O    0.45260   0.46022   0.78484   1.000
    O171    O    0.95259   0.46022   0.78484   1.000
    O172    O    0.20204   0.32395   0.78524   1.000
    O173    O    0.70203   0.32395   0.78524   1.000
    O174    O    0.50994   0.45789   0.82547   1.000
    O175    O    0.00995   0.45789   0.82591   1.000
    O176    O    0.75938   0.36749   0.82594   1.000
    O177    O    0.25939   0.36749   0.82594   1.000
    O178    O    0.49998   0.70590   0.38941   1.000
    O179    O    0.99998   0.70590   0.38941   1.000
    O180    O    0.49998   0.68433   0.29401   1.000
    O181    O    0.99998   0.68433   0.29401   1.000
    O182    O    0.50004   0.61069   0.31595   1.000
    O183    O    0.00004   0.61069   0.31595   1.000
    O184    O    0.05737   0.61308   0.35940   1.000
    O185    O    0.55736   0.61308   0.35940   1.000
    O186    O    0.24979   0.29415   0.61057   1.000
    O187    O    0.74977   0.29415   0.61057   1.000
    O188    O    0.24971   0.31568   0.70607   1.000
    O189    O    0.74969   0.31568   0.70607   1.000
    O190    O    0.24981   0.38948   0.68418   1.000
    O191    O    0.74980   0.38948   0.68418   1.000
    O192    O    0.24981   0.68419   0.38948   1.000
    O193    O    0.74980   0.68419   0.38948   1.000
    O194    O    0.24979   0.61058   0.29414   1.000
    O195    O    0.74978   0.61058   0.29414   1.000
    O196    O    0.24971   0.70608   0.31567   1.000
    O197    O    0.74970   0.70608   0.31567   1.000
    O198    O    0.50004   0.31595   0.61068   1.000
    O199    O    0.00004   0.31595   0.61068   1.000
    O200    O    0.49998   0.38941   0.70589   1.000
    O201    O    0.99998   0.38941   0.70589   1.000
    O202    O    0.49998   0.29401   0.68433   1.000
    O203    O    0.99998   0.29401   0.68433   1.000
    N204    N    0.14246   0.00051   0.38669   1.000
    O205    O    0.17221   0.93543   0.37254   1.000
    O206    O    0.17222   0.06535   0.43780   1.000
    N207    N    0.87512   0.62342   0.99951   1.000
    O208    O    0.91373   0.56731   0.93470   1.000
    O209    O    0.91375   0.63255   0.06459   1.000
    N210    N    0.14265   0.61345   0.61345   1.000
    O211    O    0.17236   0.62745   0.56234   1.000
    O212    O    0.17236   0.56234   0.62744   1.000
    N213    N    0.64245   0.00051   0.38668   1.000
    O214    O    0.67219   0.93543   0.37253   1.000
    O215    O    0.67221   0.06535   0.43780   1.000
    N216    N    0.14246   0.38669   0.00050   1.000
    O217    O    0.17222   0.43781   0.06533   1.000
    O218    O    0.17221   0.37254   0.93543   1.000
    N219    N    0.64245   0.38669   0.00050   1.000
    O220    O    0.67221   0.43781   0.06533   1.000
    O221    O    0.67219   0.37254   0.93543   1.000
    N222    N    0.39290   0.38672   0.38672   1.000
    O223    O    0.42268   0.37269   0.43778   1.000
    O224    O    0.42268   0.43779   0.37269   1.000
    N225    N    0.89289   0.38673   0.38671   1.000
    O226    O    0.92266   0.37270   0.43778   1.000
    O227    O    0.92266   0.43779   0.37269   1.000
    N228    N    0.37513   0.62342   0.99951   1.000
    O229    O    0.41374   0.56732   0.93470   1.000
    O230    O    0.41377   0.63256   0.06459   1.000
    N231    N    0.64263   0.61345   0.61344   1.000
    O232    O    0.67235   0.62745   0.56234   1.000
    O233    O    0.67235   0.56234   0.62744   1.000
    N234    N    0.39275   0.99958   0.61335   1.000
    O235    O    0.42255   0.93474   0.56228   1.000
    O236    O    0.42258   0.06463   0.62752   1.000
    N237    N    0.89274   0.99958   0.61335   1.000
    O238    O    0.92254   0.93474   0.56228   1.000
    O239    O    0.92256   0.06463   0.62739   1.000
loop_
    _geom_bond_atom_site_label_1
    _geom_bond_atom_site_label_2
    _geom_bond_distance
    _geom_bond_site_symmetry_2
    _ccdc_geom_bond_type
    Zr41   O82       0.63415      .   S
    Zr12   O82       0.63415      .   S
    Zr41   O83       1.16566      .   S
    Zr1    O83       1.16566      .   S
    Zr40   O84       0.63436      .   S
    Zr13   O84       0.63436  1_655   S
    Zr40   O85       1.16566      .   S
    Zr0    O85       1.16566      .   S
    Zr64   O86       0.63428      .   S
    Zr24   O86       0.63428      .   S
    Zr64   O87       1.16451      .   S
    Zr4    O87       1.16451      .   S
    Zr65   O88       0.63428      .   S
    Zr25   O88       0.63428      .   S
    Zr65   O89       1.16451      .   S
    Zr5    O89       1.16451      .   S
    Zr13   O90       0.64780      .   S
    Zr39   O90       0.64780      .   S
    Zr12   O91       0.64780      .   S
    Zr38   O91       0.64780      .   S
    Zr25   O92       0.64805      .   S
    Zr63   O92       0.64805      .   S
    Zr24   O93       0.64805      .   S
    Zr62   O93       0.64805      .   S
    Zr39   O94       1.19585      .   S
    Zr5    O94       1.19585      .   S
    Zr38   O95       1.19586      .   S
    Zr4    O95       1.19586      .   S
    Zr63   O96       1.19395      .   S
    Zr1    O96       1.19395      .   S
    Zr62   O97       1.19396      .   S
    Zr0    O97       1.19396      .   S
    Zr66   O98       1.19357      .   S
    Zr0    O98       1.19357      .   S
    Zr66   O99       0.64751      .   S
    Zr26   O99       0.64751      .   S
    Zr67   O100      1.19357      .   S
    Zr1    O100      1.19357      .   S
    Zr67   O101      0.64751      .   S
    Zr27   O101      0.64751      .   S
    Zr42   O102      1.19555      .   S
    Zr4    O102      1.19555      .   S
    Zr42   O103      0.64783      .   S
    Zr14   O103      0.64783      .   S
    Zr43   O104      1.19556      .   S
    Zr5    O104      1.19556      .   S
    Zr43   O105      0.64782      .   S
    Zr15   O105      0.64782      .   S
    Zr4    O106      1.16400      .   S
    Zr68   O106      1.16400      .   S
    Zr4    O107      1.16431      .   S
    Zr60   O107      1.16431      .   S
    Zr4    O108      1.19547      .   S
    Zr34   O108      1.19547      .   S
    Zr5    O109      1.16400      .   S
    Zr69   O109      1.16400      .   S
    Zr5    O110      1.16409      .   S
    Zr61   O110      1.16409      .   S
    Zr5    O111      1.19547      .   S
    Zr35   O111      1.19547      .   S
    Zr1    O112      1.16534      .   S
    Zr37   O112      1.16534      .   S
    Zr1    O113      1.19394      .   S
    Zr59   O113      1.19394      .   S
    Zr0    O114      1.16534      .   S
    Zr36   O114      1.16534      .   S
    Zr0    O115      1.19395      .   S
    Zr58   O115      1.19395      .   S
    Zr26   O116      0.63441      .   S
    Zr68   O116      0.63441      .   S
    Zr27   O117      0.63441      .   S
    Zr69   O117      0.63441      .   S
    Zr15   O118      0.63449  1_655   S
    Zr44   O118      0.63449      .   S
    Zr14   O119      0.63429      .   S
    Zr45   O119      0.63429      .   S
    Zr44   O120      0.30989      .   S
    Zr8    O120      0.30989      .   S
    Zr45   O121      0.30989      .   S
    Zr9    O121      0.30989      .   S
    Zr61   O122      0.63446      .   S
    Zr23   O122      0.63446      .   S
    Zr60   O123      0.63440      .   S
    Zr22   O123      0.63440      .   S
    Zr36   O124      0.63451      .   S
    Zr11   O124      0.63451  1_655   S
    Zr37   O125      0.63430      .   S
    Zr10   O125      0.63430      .   S
    Zr34   O126      0.64780      .   S
    Zr10   O126      0.64780      .   S
    Zr35   O127      0.64780      .   S
    Zr11   O127      0.64780      .   S
    Zr58   O128      0.64756      .   S
    Zr22   O128      0.64756      .   S
    Zr59   O129      0.64756      .   S
    Zr23   O129      0.64756      .   S
    Zr29   O130      0.64781      .   S
    Zr71   O130      0.64781      .   S
    Zr29   O131      0.63449  1_655   S
    Zr72   O131      0.63449      .   S
    Zr28   O132      0.64781      .   S
    Zr70   O132      0.64781      .   S
    Zr28   O133      0.63429      .   S
    Zr73   O133      0.63429      .   S
    Zr17   O134      0.64755      .   S
    Zr47   O134      0.64755      .   S
    Zr17   O135      0.63440      .   S
    Zr49   O135      0.63440      .   S
    Zr16   O136      0.64755      .   S
    Zr46   O136      0.64755      .   S
    Zr16   O137      0.63440      .   S
    Zr48   O137      0.63440      .   S
    Zr46   O138      1.19394      .   S
    Zr6    O138      1.19394      .   S
    Zr47   O139      1.19393      .   S
    Zr7    O139      1.19393      .   S
    Zr70   O140      1.19560      .   S
    Zr2    O140      1.19560      .   S
    Zr71   O141      1.19560      .   S
    Zr3    O141      1.19560      .   S
    Zr72   O142      1.16527      .   S
    Zr6    O142      1.16527      .   S
    Zr73   O143      1.16527      .   S
    Zr7    O143      1.16527      .   S
    Zr49   O144      1.16446      .   S
    Zr3    O144      1.16446      .   S
    Zr48   O145      1.16446      .   S
    Zr2    O145      1.16446      .   S
    Zr56   O146      0.63438      .   S
    Zr20   O146      0.63438      .   S
    Zr56   O147      1.16433      .   S
    Zr2    O147      1.16433      .   S
    Zr57   O148      0.63438      .   S
    Zr21   O148      0.63438      .   S
    Zr57   O149      1.16434      .   S
    Zr3    O149      1.16434      .   S
    Zr81   O150      0.63437      .   S
    Zr32   O150      0.63437      .   S
    Zr81   O151      1.16497      .   S
    Zr7    O151      1.16497      .   S
    Zr80   O152      0.63275      .   S
    Zr33   O152      0.63275  1_655   S
    Zr80   O153      1.16497      .   S
    Zr6    O153      1.16497      .   S
    Zr33   O154      0.64838      .   S
    Zr79   O154      0.64838      .   S
    Zr20   O155      0.64756      .   S
    Zr54   O155      0.64756      .   S
    Zr21   O156      0.64756      .   S
    Zr55   O156      0.64756      .   S
    Zr32   O157      0.64778      .   S
    Zr78   O157      0.64778      .   S
    Zr3    O158      1.19587      .   S
    Zr79   O158      1.19587      .   S
    Zr3    O159      1.19550      .   S
    Zr75   O159      1.19550      .   S
    Zr3    O160      1.16397      .   S
    Zr53   O160      1.16397      .   S
    Zr2    O161      1.19587      .   S
    Zr78   O161      1.19587      .   S
    Zr2    O162      1.19550      .   S
    Zr74   O162      1.19550      .   S
    Zr2    O163      1.16397      .   S
    Zr52   O163      1.16397      .   S
    Zr7    O164      1.19393      .   S
    Zr55   O164      1.19393      .   S
    Zr7    O165      1.19351      .   S
    Zr51   O165      1.19351      .   S
    Zr7    O166      1.15990      .   S
    Zr77   O166      1.15990      .   S
    Zr6    O167      1.19393      .   S
    Zr54   O167      1.19393      .   S
    Zr6    O168      1.19351      .   S
    Zr50   O168      1.19351      .   S
    Zr6    O169      1.16530      .   S
    Zr76   O169      1.16530      .   S
    Zr74   O170      0.64782      .   S
    Zr30   O170      0.64782      .   S
    Zr75   O171      0.64782      .   S
    Zr31   O171      0.64782      .   S
    Zr50   O172      0.64754      .   S
    Zr18   O172      0.64754      .   S
    Zr51   O173      0.64754      .   S
    Zr19   O173      0.64754      .   S
    Zr30   O174      0.63255      .   S
    Zr77   O174      0.63255      .   S
    Zr31   O175      0.63448  1_655   S
    Zr76   O175      0.63448      .   S
    Zr19   O176      0.63444      .   S
    Zr53   O176      0.63444      .   S
    Zr18   O177      0.63444      .   S
    Zr52   O177      0.63444      .   S
    Zr34   O178      1.30176      .   S
    Zr1    O178      1.30176      .   S
    Zr35   O179      1.30194      .   S
    Zr0    O179      1.30194  1_455   S
    Zr38   O180      1.30305      .   S
    Zr1    O180      1.30305      .   S
    Zr39   O181      1.30324      .   S
    Zr0    O181      1.30324  1_455   S
    Zr42   O182      1.30198      .   S
    Zr1    O182      1.30198      .   S
    Zr43   O183      1.30216  1_655   S
    Zr0    O183      1.30216      .   S
    Zr44   O184      1.16523      .   S
    Zr0    O184      1.16523      .   S
    Zr45   O185      1.16524      .   S
    Zr1    O185      1.16524      .   S
    Zr46   O186      1.30547      .   S
    Zr2    O186      1.30547      .   S
    Zr47   O187      1.30547      .   S
    Zr3    O187      1.30547      .   S
    Zr50   O188      1.30794      .   S
    Zr2    O188      1.30794      .   S
    Zr51   O189      1.30794      .   S
    Zr3    O189      1.30794      .   S
    Zr54   O190      1.30645      .   S
    Zr2    O190      1.30645      .   S
    Zr55   O191      1.30645      .   S
    Zr3    O191      1.30645      .   S
    Zr58   O192      1.30645      .   S
    Zr4    O192      1.30645      .   S
    Zr59   O193      1.30646      .   S
    Zr5    O193      1.30646      .   S
    Zr62   O194      1.30549      .   S
    Zr4    O194      1.30549      .   S
    Zr63   O195      1.30550      .   S
    Zr5    O195      1.30550      .   S
    Zr66   O196      1.30796      .   S
    Zr4    O196      1.30796      .   S
    Zr67   O197      1.30796      .   S
    Zr5    O197      1.30796      .   S
    Zr70   O198      1.30204      .   S
    Zr7    O198      1.30204      .   S
    Zr71   O199      1.30221  1_655   S
    Zr6    O199      1.30221      .   S
    Zr74   O200      1.30177      .   S
    Zr7    O200      1.30177      .   S
    Zr75   O201      1.30195      .   S
    Zr6    O201      1.30195  1_455   S
    Zr78   O202      1.30303      .   S
    Zr7    O202      1.30303      .   S
    Zr79   O203      1.30321      .   S
    Zr6    O203      1.30321  1_455   S
    N204   O205      1.06799  1_545   S
    Zr26   O205      1.80946      .   S
    N204   O206      1.06807      .   S
    Zr16   O206      1.80951      .   S
    N207   O208      1.15539      .   S
    Zr31   O208      1.89376      .   S
    N207   O209      1.15537  1_556   S
    Zr13   O209      1.89374      .   S
    N210   O211      1.06803      .   S
    Zr22   O211      1.80943      .   S
    N210   O212      1.06803      .   S
    Zr20   O212      1.80949      .   S
    N213   O214      1.06801  1_545   S
    Zr27   O214      1.80948      .   S
    N213   O215      1.06809      .   S
    Zr17   O215      1.80953      .   S
    N216   O217      1.06787      .   S
    Zr24   O217      1.80896      .   S
    N216   O218      1.06802  1_554   S
    Zr18   O218      1.80946      .   S
    N219   O220      1.06787      .   S
    Zr25   O220      1.80896      .   S
    N219   O221      1.06802  1_554   S
    Zr19   O221      1.80947      .   S
    N222   O223      1.06811      .   S
    Zr28   O223      1.80959      .   S
    N222   O224      1.06812      .   S
    Zr14   O224      1.80959      .   S
    N225   O226      1.06812      .   S
    Zr29   O226      1.80960      .   S
    N225   O227      1.06810      .   S
    Zr15   O227      1.80958      .   S
    N228   O229      1.15539      .   S
    Zr30   O229      1.89376      .   S
    N228   O230      1.15537  1_556   S
    Zr12   O230      1.89375      .   S
    N231   O232      1.06797      .   S
    Zr23   O232      1.80942      .   S
    N231   O233      1.06807      .   S
    Zr21   O233      1.80951      .   S
    N234   O235      1.06811      .   S
    Zr10   O235      1.80956      .   S
    N234   O236      1.06809  1_565   S
    Zr32   O236      1.80956      .   S
    N237   O238      1.06810      .   S
    Zr11   O238      1.80956      .   S
    N237   O239      1.06865  1_565   S
    Zr33   O239      1.81133      .   S
