# CIF file generated by openbabel 2.4.90, see http://openbabel.sf.net
data_I
_chemical_name_common ''
_cell_length_a 13.449
_cell_length_b 13.571
_cell_length_c 13.962
_cell_angle_alpha 77.615
_cell_angle_beta 65.011
_cell_angle_gamma 63.881
_space_group_name_H-M_alt 'P 1'
_space_group_name_Hall 'P 1'
loop_
    _symmetry_equiv_pos_as_xyz
    x,y,z
loop_
    _atom_site_label
    _atom_site_type_symbol
    _atom_site_fract_x
    _atom_site_fract_y
    _atom_site_fract_z
    _atom_site_occupancy
    Lv0     Lv   0.40281   0.36225   0.85306   1.000
    Lv1     Lv   0.00002   0.99997   0.00000   1.000
    Lv2     Lv   0.00005   0.50003   0.49996   1.000
    Lv3     Lv   0.99999   0.00003   0.49996   1.000
    Lv4     Lv   0.59718   0.63771   0.14690   1.000
