# CIF file generated by openbabel 2.4.90, see http://openbabel.sf.net
data_I
_chemical_name_common ''
_cell_length_a 13.449
_cell_length_b 13.571
_cell_length_c 13.962
_cell_angle_alpha 77.615
_cell_angle_beta 65.011
_cell_angle_gamma 63.881
_space_group_name_H-M_alt 'P 1'
_space_group_name_Hall 'P 1'
loop_
    _symmetry_equiv_pos_as_xyz
    x,y,z
loop_
    _atom_site_label
    _atom_site_type_symbol
    _atom_site_fract_x
    _atom_site_fract_y
    _atom_site_fract_z
    _atom_site_occupancy
    N0      N    0.40281   0.36225   0.85306   1.000
    N1      N    0.00002   0.99997   0.00000   1.000
    N2      N    0.00005   0.50003   0.49996   1.000
    N3      N    0.99999   0.00003   0.49996   1.000
    N4      N    0.59718   0.63771   0.14690   1.000
    Zr5     Zr   0.52932   0.08586   0.32160   1.000
    O6      O    0.35970   0.05604   0.37903   1.000
    O7      O    0.35988   0.21258   0.37661   1.000
    O8      O    0.54059   0.94787   0.27160   1.000
    O9      O    0.66285   0.05605   0.22519   1.000
    Zr10    Zr   0.47071   0.91404   0.67841   1.000
    O11     O    0.64031   0.94392   0.62094   1.000
    O12     O    0.64017   0.78738   0.62337   1.000
    O13     O    0.33718   0.94387   0.77482   1.000
    O14     O    0.45942   0.05206   0.72839   1.000
loop_
    _geom_bond_atom_site_label_1
    _geom_bond_atom_site_label_2
    _geom_bond_distance
    _geom_bond_site_symmetry_2
    _ccdc_geom_bond_type
    Zr5    O6        2.26676      .   S
    N3     O6        4.75592  1_655   S
    Zr5    O7        2.09227      .   S
    N2     O7        4.56309      .   S
    Zr5    O8        2.05877  1_545   S
    N4     O8        4.53118      .   S
    Zr5    O9        1.65902      .   S
    N1     O9        4.11937  1_465   S
    Zr10   O11       2.26698      .   S
    N3     O11       4.75619  1_545   S
    Zr10   O12       2.09209      .   S
    N2     O12       4.56282  1_455   S
    Zr10   O13       1.65896      .   S
    N1     O13       4.11922  1_554   S
    Zr10   O14       2.05894  1_565   S
    N0     O14       4.53131      .   S
