# CIF file generated by openbabel 2.4.90, see http://openbabel.sf.net
data_I
_chemical_name_common ''
_cell_length_a 13.449
_cell_length_b 13.571
_cell_length_c 13.962
_cell_angle_alpha 77.615
_cell_angle_beta 65.011
_cell_angle_gamma 63.881
_space_group_name_H-M_alt 'P 1'
_space_group_name_Hall 'P 1'
loop_
    _symmetry_equiv_pos_as_xyz
    x,y,z
loop_
    _atom_site_label
    _atom_site_type_symbol
    _atom_site_fract_x
    _atom_site_fract_y
    _atom_site_fract_z
    _atom_site_occupancy
    C0      C    0.48051   0.07907   0.33808   1.000
    C1      C    0.51951   0.92088   0.66191   1.000
    C2      C    0.14833   0.47616   0.56410   1.000
    C3      C    0.33831   0.32053   0.48380   1.000
    C4      C    0.64566   0.18028   0.10530   1.000
    C5      C    0.84207   0.17111   0.98317   1.000
    C6      C    0.58520   0.66089   0.97683   1.000
    C7      C    0.57812   0.94744   0.10025   1.000
    C8      C    0.99065   0.84371   0.11448   1.000
    C9      C    0.27759   0.97553   0.56002   1.000
    C10     C    0.52439   0.63489   0.33540   1.000
    C11     C    0.78491   0.86983   0.23507   1.000
    C12     C    0.48845   0.80621   0.40251   1.000
    C13     C    0.64024   0.47890   0.25874   1.000
    C14     C    0.62462   0.77976   0.01906   1.000
    C15     C    0.08782   0.95456   0.62908   1.000
    C16     C    0.68859   0.31146   0.17814   1.000
    C17     C    0.01151   0.40443   0.36846   1.000
    C18     C    0.64089   0.48435   0.90656   1.000
    C19     C    0.20894   0.25504   0.29460   1.000
    C20     C    0.26714   0.06610   0.26044   1.000
    C21     C    0.07444   0.05002   0.31651   1.000
    C22     C    0.85148   0.52333   0.43640   1.000
    C23     C    0.66154   0.67909   0.51660   1.000
    C24     C    0.35438   0.81966   0.89471   1.000
    C25     C    0.15798   0.82883   0.01684   1.000
    C26     C    0.41487   0.33904   0.02310   1.000
    C27     C    0.42190   0.05252   0.89971   1.000
    C28     C    0.00940   0.15625   0.88557   1.000
    C29     C    0.72279   0.02378   0.43973   1.000
    C30     C    0.47557   0.36509   0.66456   1.000
    C31     C    0.21514   0.13012   0.76490   1.000
    C32     C    0.51152   0.19376   0.59745   1.000
    C33     C    0.35970   0.52108   0.74126   1.000
    C34     C    0.37541   0.22020   0.98090   1.000
    C35     C    0.91264   0.04461   0.37062   1.000
    C36     C    0.31133   0.68851   0.82180   1.000
    C37     C    0.98888   0.59622   0.63088   1.000
    C38     C    0.35917   0.51558   0.09340   1.000
    C39     C    0.79139   0.74548   0.70478   1.000
    C40     C    0.73247   0.93465   0.73965   1.000
    C41     C    0.92506   0.95095   0.68362   1.000
    C42     C    0.15531   0.42933   0.50574   1.000
    C43     C    0.58096   0.68958   0.16983   1.000
    C44     C    0.93871   0.00524   0.03611   1.000
    C45     C    0.05872   0.45479   0.47612   1.000
    C46     C    0.26280   0.34188   0.46121   1.000
    C47     C    0.72424   0.10673   0.10586   1.000
    C48     C    0.60910   0.58671   0.12494   1.000
    C49     C    0.83712   0.10005   0.03570   1.000
    C50     C    0.60955   0.58553   0.02430   1.000
    C51     C    0.56975   0.87523   0.14949   1.000
    C52     C    0.91768   0.92055   0.10897   1.000
    C53     C    0.22939   0.99292   0.50830   1.000
    C54     C    0.54042   0.70079   0.27927   1.000
    C55     C    0.80187   0.93404   0.17674   1.000
    C56     C    0.05879   0.00386   0.48042   1.000
    C57     C    0.51833   0.79776   0.31771   1.000
    C58     C    0.63835   0.48525   0.18034   1.000
    C59     C    0.59499   0.78075   0.10464   1.000
    C60     C    0.12140   0.98116   0.54670   1.000
    C61     C    0.66771   0.38991   0.13404   1.000
    C62     C    0.07994   0.38987   0.39809   1.000
    C63     C    0.64063   0.48575   0.98462   1.000
    C64     C    0.19041   0.30455   0.35682   1.000
    C65     C    0.22296   0.04287   0.34210   1.000
    C66     C    0.11449   0.03350   0.37464   1.000
    C67     C    0.84463   0.57045   0.49453   1.000
    C68     C    0.41904   0.31039   0.83013   1.000
    C69     C    0.06133   0.99471   0.96392   1.000
    C70     C    0.94137   0.54528   0.52384   1.000
    C71     C    0.73715   0.65793   0.53902   1.000
    C72     C    0.27580   0.89321   0.89416   1.000
    C73     C    0.39088   0.41326   0.87503   1.000
    C74     C    0.16293   0.89989   0.96426   1.000
    C75     C    0.39048   0.41441   0.97565   1.000
    C76     C    0.43025   0.12474   0.85047   1.000
    C77     C    0.08236   0.07941   0.89100   1.000
    C78     C    0.77082   0.00671   0.49150   1.000
    C79     C    0.45954   0.29919   0.72069   1.000
    C80     C    0.19818   0.06591   0.82329   1.000
    C81     C    0.94119   0.99621   0.51951   1.000
    C82     C    0.48163   0.20222   0.68225   1.000
    C83     C    0.36160   0.51473   0.81965   1.000
    C84     C    0.40502   0.21922   0.89532   1.000
    C85     C    0.87883   0.01844   0.45311   1.000
    C86     C    0.33223   0.61006   0.86597   1.000
    C87     C    0.92031   0.61050   0.60155   1.000
    C88     C    0.35938   0.51419   0.01535   1.000
    C89     C    0.80981   0.69578   0.64280   1.000
    C90     C    0.77681   0.95759   0.65785   1.000
    C91     C    0.88524   0.96703   0.62539   1.000
    C92     C    0.70500   0.02594   0.17703   1.000
    C93     C    0.53258   0.88505   0.25450   1.000
    C94     C    0.28117   0.27810   0.38845   1.000
    C95     C    0.27987   0.02581   0.40785   1.000
    C96     C    0.67066   0.38795   0.03680   1.000
    C97     C    0.29505   0.97401   0.82299   1.000
    C98     C    0.46740   0.11492   0.74546   1.000
    C99     C    0.71891   0.72195   0.61150   1.000
    C100    C    0.72012   0.97424   0.59208   1.000
    C101    C    0.32936   0.61200   0.96310   1.000
    C102    C    0.63130   0.89835   0.43045   1.000
    C103    C    0.42852   0.15559   0.15617   1.000
    C104    C    0.57693   0.21042   0.36170   1.000
    C105    C    0.36862   0.10147   0.56955   1.000
    C106    C    0.57161   0.84439   0.84375   1.000
    C107    C    0.42311   0.78943   0.63841   1.000
    O108    O    0.35928   0.51489   0.05437   1.000
    O109    O    0.34437   0.56310   0.98922   1.000
    O110    O    0.37493   0.46430   0.99550   1.000
    O111    O    0.16046   0.86436   0.99055   1.000
    O112    O    0.60981   0.78025   0.06185   1.000
    O113    O    0.40267   0.37673   0.99937   1.000
    O114    O    0.60933   0.58612   0.07462   1.000
    O115    O    0.59738   0.62321   0.00056   1.000
    O116    O    0.62509   0.53564   0.00446   1.000
    O117    O    0.88791   0.05264   0.03590   1.000
    O118    O    0.78068   0.10339   0.07078   1.000
    O119    O    0.83959   0.13558   0.00943   1.000
    O120    O    0.92820   0.96289   0.07254   1.000
    O121    O    0.00002   0.99997   0.00001   1.000
    O122    O    0.66918   0.38893   0.08542   1.000
    O123    O    0.65564   0.43685   0.01071   1.000
    O124    O    0.57394   0.91133   0.12487   1.000
    O125    O    0.58237   0.82799   0.12707   1.000
    O126    O    0.58797   0.73516   0.13723   1.000
    O127    O    0.68495   0.14350   0.10558   1.000
    O128    O    0.71462   0.06633   0.14144   1.000
    O129    O    0.95416   0.88213   0.11172   1.000
    O130    O    0.85977   0.92729   0.14285   1.000
    O131    O    0.59503   0.63814   0.14738   1.000
    O132    O    0.62373   0.53598   0.15264   1.000
    O133    O    0.67815   0.35068   0.15609   1.000
    O134    O    0.65303   0.43758   0.15719   1.000
    O135    O    0.55117   0.88014   0.20200   1.000
    O136    O    0.45451   0.11733   0.24712   1.000
    O137    O    0.56069   0.69518   0.22455   1.000
    O138    O    0.75343   0.97999   0.17688   1.000
    O139    O    0.79339   0.90194   0.20590   1.000
    O140    O    0.59275   0.05250   0.25755   1.000
    O141    O    0.63929   0.48207   0.21954   1.000
    O142    O    0.52546   0.84140   0.28610   1.000
    O143    O    0.50655   0.98206   0.29629   1.000
    O144    O    0.24505   0.05449   0.30127   1.000
    O145    O    0.52938   0.74927   0.29849   1.000
    O146    O    0.53240   0.66784   0.30733   1.000
    O147    O    0.19968   0.27979   0.32571   1.000
    O148    O    0.09446   0.04176   0.34557   1.000
    O149    O    0.50339   0.80199   0.36011   1.000
    O150    O    0.52872   0.14475   0.34989   1.000
    O151    O    0.38084   0.17858   0.36326   1.000
    O152    O    0.38019   0.05244   0.37296   1.000
    O153    O    0.55590   0.98871   0.38426   1.000
    O154    O    0.16872   0.03819   0.35837   1.000
    O155    O    0.25141   0.03434   0.37497   1.000
    O156    O    0.23579   0.29132   0.37264   1.000
    O157    O    0.13518   0.34721   0.37745   1.000
    O158    O    0.04573   0.39715   0.38327   1.000
    O159    O    0.89573   0.03153   0.41186   1.000
    O160    O    0.08664   0.01868   0.42753   1.000
    O161    O    0.27199   0.30999   0.42483   1.000
    O162    O    0.06933   0.42233   0.43710   1.000
    O163    O    0.25463   0.00937   0.45807   1.000
    O164    O    0.84806   0.54689   0.46546   1.000
    O165    O    0.74681   0.01524   0.46562   1.000
    O166    O    0.82483   0.01258   0.47230   1.000
    O167    O    0.91001   0.00733   0.48631   1.000
    O168    O    0.30056   0.33120   0.47250   1.000
    O169    O    0.20906   0.38560   0.48347   1.000
    O170    O    0.10702   0.44206   0.49093   1.000
    O171    O    0.00005   0.50003   0.49998   1.000
    O172    O    0.99999   0.00004   0.49996   1.000
    O173    O    0.09009   0.99251   0.51356   1.000
    O174    O    0.74547   0.99048   0.54179   1.000
    O175    O    0.89300   0.55786   0.50918   1.000
    O176    O    0.79089   0.61419   0.51677   1.000
    O177    O    0.15182   0.45274   0.53492   1.000
    O178    O    0.17540   0.98704   0.52750   1.000
    O179    O    0.25349   0.98423   0.53416   1.000
    O180    O    0.69935   0.66851   0.52781   1.000
    O181    O    0.91322   0.98162   0.57245   1.000
    O182    O    0.93084   0.57789   0.56269   1.000
    O183    O    0.72803   0.68994   0.57526   1.000
    O184    O    0.10461   0.96786   0.58789   1.000
    O185    O    0.44407   0.01117   0.61573   1.000
    O186    O    0.74846   0.96592   0.62496   1.000
    O187    O    0.61982   0.94756   0.62699   1.000
    O188    O    0.49657   0.19799   0.63985   1.000
    O189    O    0.95459   0.60336   0.61621   1.000
    O190    O    0.86506   0.65314   0.62218   1.000
    O191    O    0.76436   0.70887   0.62715   1.000
    O192    O    0.61921   0.82142   0.63670   1.000
    O193    O    0.83103   0.96231   0.64162   1.000
    O194    O    0.90515   0.95899   0.65451   1.000
    O195    O    0.47131   0.85515   0.65016   1.000
    O196    O    0.80060   0.72063   0.67379   1.000
    O197    O    0.75464   0.94612   0.69875   1.000
    O198    O    0.49346   0.01790   0.70369   1.000
    O199    O    0.40728   0.94744   0.74245   1.000
    O200    O    0.54556   0.88263   0.75283   1.000
    O201    O    0.46755   0.33214   0.69262   1.000
    O202    O    0.47058   0.25070   0.70147   1.000
    O203    O    0.47451   0.15857   0.71386   1.000
    O204    O    0.43929   0.30479   0.77541   1.000
    O205    O    0.36065   0.51790   0.78045   1.000
    O206    O    0.44882   0.11983   0.79796   1.000
    O207    O    0.20666   0.09801   0.79409   1.000
    O208    O    0.34692   0.56239   0.84281   1.000
    O209    O    0.37624   0.46399   0.84734   1.000
    O210    O    0.32178   0.64929   0.84388   1.000
    O211    O    0.24661   0.01996   0.82314   1.000
    O212    O    0.28542   0.93361   0.85857   1.000
    O213    O    0.14027   0.07266   0.85715   1.000
    O214    O    0.40496   0.36182   0.85258   1.000
    O215    O    0.41203   0.26480   0.86272   1.000
    O216    O    0.41763   0.17198   0.87289   1.000
    O217    O    0.42607   0.08863   0.87509   1.000
    O218    O    0.33079   0.61103   0.91453   1.000
    O219    O    0.39068   0.41383   0.92534   1.000
    O220    O    0.04588   0.11783   0.88828   1.000
    O221    O    0.07185   0.03706   0.92746   1.000
    O222    O    0.31509   0.85644   0.89443   1.000
    O223    O    0.21937   0.89655   0.92921   1.000
    O224    O    0.39021   0.21971   0.93811   1.000
    O225    O    0.64076   0.48505   0.94559   1.000
    O226    O    0.11213   0.94730   0.96409   1.000
loop_
    _geom_bond_atom_site_label_1
    _geom_bond_atom_site_label_2
    _geom_bond_distance
    _geom_bond_site_symmetry_2
    _ccdc_geom_bond_type
    C88    O108      0.54634      .   S
    C38    O108      0.54634      .   S
    C88    O109      0.67430  1_554   S
    C101   O109      0.67430      .   S
    C88    O110      0.69699  1_554   S
    C75    O110      0.69699      .   S
    C25    O111      0.54429  1_554   S
    C74    O111      0.54429      .   S
    C14    O112      0.54464      .   S
    C59    O112      0.54464      .   S
    C26    O113      0.54548  1_554   S
    C75    O113      0.54548      .   S
    C50    O114      0.70304      .   S
    C48    O114      0.70304      .   S
    C50    O115      0.54548      .   S
    C6     O115      0.54548  1_556   S
    C50    O116      0.69698      .   S
    C63    O116      0.69698  1_556   S
    C49    O117      0.70323      .   S
    C44    O117      0.70323      .   S
    C49    O118      0.69511      .   S
    C47    O118      0.69511      .   S
    C49    O119      0.54411      .   S
    C5     O119      0.54411  1_556   S
    C44    O120      0.70309  1_545   S
    C52    O120      0.70309      .   S
    C44    O121      0.74262  1_645   S
    C69    O121      0.74262  1_556   S
    C96    O122      0.67355      .   S
    C61    O122      0.67355      .   S
    C96    O123      0.67404      .   S
    C63    O123      0.67404  1_556   S
    C7     O124      0.54507      .   S
    C51    O124      0.54507      .   S
    C59    O125      0.69518      .   S
    C51    O125      0.69518      .   S
    C59    O126      0.70216      .   S
    C43    O126      0.70216      .   S
    C4     O127      0.54497      .   S
    C47    O127      0.54497      .   S
    C47    O128      0.67487      .   S
    C92    O128      0.67487      .   S
    C52    O129      0.54421      .   S
    C8     O129      0.54421      .   S
    C52    O130      0.69516      .   S
    C55    O130      0.69516      .   S
    C48    O131      0.74073      .   S
    C43    O131      0.74073      .   S
    C48    O132      0.70220      .   S
    C58    O132      0.70220      .   S
    C61    O133      0.54610      .   S
    C16    O133      0.54610      .   S
    C61    O134      0.69663      .   S
    C58    O134      0.69663      .   S
    C51    O135      0.67513      .   S
    C93    O135      0.67513      .   S
    C103   O136      1.39172      .   S
    C0     O136      1.39172      .   S
    C43    O137      0.70321      .   S
    C54    O137      0.70321      .   S
    C55    O138      0.67449      .   S
    C92    O138      0.67449  1_545   S
    C55    O139      0.54503      .   S
    C11    O139      0.54503      .   S
    C92    O140      1.39054      .   S
    C0     O140      1.39054      .   S
    C58    O141      0.54482      .   S
    C13    O141      0.54482      .   S
    C93    O142      0.67592      .   S
    C57    O142      0.67592      .   S
    C93    O143      1.39542      .   S
    C0     O143      1.39542  1_545   S
    C20    O144      0.54559      .   S
    C65    O144      0.54559      .   S
    C54    O145      0.69501      .   S
    C57    O145      0.69501      .   S
    C54    O146      0.54473      .   S
    C10    O146      0.54473      .   S
    C19    O147      0.54505      .   S
    C64    O147      0.54505      .   S
    C21    O148      0.54408      .   S
    C66    O148      0.54408      .   S
    C57    O149      0.54592      .   S
    C12    O149      0.54592      .   S
    C0     O150      1.37995      .   S
    C104   O150      1.37995      .   S
    C0     O151      1.39853      .   S
    C94    O151      1.39853      .   S
    C0     O152      1.40954      .   S
    C95    O152      1.40954      .   S
    C0     O153      1.43742  1_545   S
    C102   O153      1.43742      .   S
    C65    O154      0.69450      .   S
    C66    O154      0.69450      .   S
    C65    O155      0.67610      .   S
    C95    O155      0.67610      .   S
    C64    O156      0.67367      .   S
    C94    O156      0.67367      .   S
    C64    O157      0.69433      .   S
    C62    O157      0.69433      .   S
    C17    O158      0.54398      .   S
    C62    O158      0.54398      .   S
    C35    O159      0.54397      .   S
    C85    O159      0.54397      .   S
    C66    O160      0.70355      .   S
    C56    O160      0.70355      .   S
    C94    O161      0.67437      .   S
    C46    O161      0.67437      .   S
    C62    O162      0.70220      .   S
    C45    O162      0.70220      .   S
    C95    O163      0.67468      .   S
    C53    O163      0.67468  1_565   S
    C22    O164      0.54401      .   S
    C67    O164      0.54401      .   S
    C29    O165      0.54411      .   S
    C78    O165      0.54411      .   S
    C85    O166      0.69497      .   S
    C78    O166      0.69497      .   S
    C85    O167      0.70141      .   S
    C81    O167      0.70141  1_565   S
    C46    O168      0.54475      .   S
    C3     O168      0.54475      .   S
    C46    O169      0.69488      .   S
    C42    O169      0.69488      .   S
    C45    O170      0.70271      .   S
    C42    O170      0.70271      .   S
    C45    O171      0.74142      .   S
    C70    O171      0.74142  1_655   S
    C56    O172      0.74181  1_455   S
    C81    O172      0.74181  1_565   S
    C56    O173      0.70142  1_545   S
    C60    O173      0.70142      .   S
    C78    O174      0.67477  1_545   S
    C100   O174      0.67477      .   S
    C67    O175      0.70273      .   S
    C70    O175      0.70273      .   S
    C67    O176      0.69488      .   S
    C71    O176      0.69488      .   S
    C42    O177      0.54355      .   S
    C2     O177      0.54355      .   S
    C53    O178      0.69497      .   S
    C60    O178      0.69497      .   S
    C53    O179      0.54429      .   S
    C9     O179      0.54429      .   S
    C23    O180      0.54495      .   S
    C71    O180      0.54495      .   S
    C81    O181      0.70353      .   S
    C91    O181      0.70353      .   S
    C70    O182      0.70219      .   S
    C87    O182      0.70219      .   S
    C71    O183      0.67435      .   S
    C99    O183      0.67435      .   S
    C60    O184      0.54401      .   S
    C15    O184      0.54401      .   S
    C105   O185      1.43733      .   S
    C1     O185      1.43733  1_565   S
    C100   O186      0.67570      .   S
    C90    O186      0.67570      .   S
    C100   O187      1.40972      .   S
    C1     O187      1.40972      .   S
    C32    O188      0.54592      .   S
    C82    O188      0.54592      .   S
    C87    O189      0.54398      .   S
    C37    O189      0.54398      .   S
    C87    O190      0.69427      .   S
    C89    O190      0.69427      .   S
    C99    O191      0.67342      .   S
    C89    O191      0.67342      .   S
    C99    O192      1.39829      .   S
    C1     O192      1.39829      .   S
    C91    O193      0.69458      .   S
    C90    O193      0.69458      .   S
    C91    O194      0.54411      .   S
    C41    O194      0.54411      .   S
    C107   O195      1.38005      .   S
    C1     O195      1.38005      .   S
    C89    O196      0.54485      .   S
    C39    O196      0.54485      .   S
    C90    O197      0.54598      .   S
    C40    O197      0.54598      .   S
    C1     O198      1.39538  1_565   S
    C98    O198      1.39538      .   S
    C1     O199      1.39052      .   S
    C97    O199      1.39052      .   S
    C1     O200      1.39160      .   S
    C106   O200      1.39160      .   S
    C30    O201      0.54474      .   S
    C79    O201      0.54474      .   S
    C82    O202      0.69501      .   S
    C79    O202      0.69501      .   S
    C82    O203      0.67593      .   S
    C98    O203      0.67593      .   S
    C79    O204      0.70323      .   S
    C68    O204      0.70323      .   S
    C33    O205      0.54481      .   S
    C83    O205      0.54481      .   S
    C98    O206      0.67514      .   S
    C76    O206      0.67514      .   S
    C31    O207      0.54523      .   S
    C80    O207      0.54523      .   S
    C83    O208      0.69664      .   S
    C86    O208      0.69664      .   S
    C83    O209      0.70219      .   S
    C73    O209      0.70219      .   S
    C36    O210      0.54637      .   S
    C86    O210      0.54637      .   S
    C97    O211      0.67450  1_565   S
    C80    O211      0.67450      .   S
    C97    O212      0.67488      .   S
    C72    O212      0.67488      .   S
    C80    O213      0.69504      .   S
    C77    O213      0.69504      .   S
    C68    O214      0.74071      .   S
    C73    O214      0.74071      .   S
    C68    O215      0.70216      .   S
    C84    O215      0.70216      .   S
    C76    O216      0.69518      .   S
    C84    O216      0.69518      .   S
    C76    O217      0.54508      .   S
    C27    O217      0.54508      .   S
    C86    O218      0.67295      .   S
    C101   O218      0.67295      .   S
    C73    O219      0.70302      .   S
    C75    O219      0.70302      .   S
    C28    O220      0.54408      .   S
    C77    O220      0.54408      .   S
    C77    O221      0.70331      .   S
    C69    O221      0.70331  1_565   S
    C72    O222      0.54497      .   S
    C24    O222      0.54497      .   S
    C72    O223      0.69500      .   S
    C74    O223      0.69500      .   S
    C84    O224      0.54465      .   S
    C34    O224      0.54465      .   S
    C18    O225      0.54632      .   S
    C63    O225      0.54632      .   S
    C69    O226      0.70314      .   S
    C74    O226      0.70314      .   S
