# CIF file generated by openbabel 2.4.90, see http://openbabel.sf.net
data_I
_chemical_name_common ''
_cell_length_a 19.314
_cell_length_b 21.4
_cell_length_c 26.004
_cell_angle_alpha 57.185
_cell_angle_beta 75.071
_cell_angle_gamma 69.375
_space_group_name_H-M_alt 'P 1'
_space_group_name_Hall 'P 1'
loop_
    _symmetry_equiv_pos_as_xyz
    x,y,z
loop_
    _atom_site_label
    _atom_site_type_symbol
    _atom_site_fract_x
    _atom_site_fract_y
    _atom_site_fract_z
    _atom_site_occupancy
    La0     La   0.14562   0.00262   0.74683   1.000
    La1     La   0.14565   0.50257   0.24686   1.000
    La2     La   0.14563   0.50263   0.74681   1.000
    La3     La   0.64567   0.00264   0.24675   1.000
    La4     La   0.64562   0.00263   0.74680   1.000
    La5     La   0.64566   0.50257   0.24685   1.000
    La6     La   0.64563   0.50264   0.74681   1.000
    La7     La   0.35446   0.49743   0.25317   1.000
    La8     La   0.35444   0.49750   0.75312   1.000
    La9     La   0.35447   0.99744   0.25314   1.000
    La10    La   0.35441   0.99743   0.75321   1.000
    La11    La   0.85446   0.49744   0.25316   1.000
    La12    La   0.85444   0.49750   0.75312   1.000
    La13    La   0.85447   0.99745   0.25314   1.000
    La14    La   0.85442   0.99744   0.75321   1.000
    La15    La   0.14567   0.00264   0.24676   1.000
