# CIF file generated by openbabel 2.4.90, see http://openbabel.sf.net
data_I
_chemical_name_common ''
_cell_length_a 19.314
_cell_length_b 21.4
_cell_length_c 26.004
_cell_angle_alpha 57.185
_cell_angle_beta 75.071
_cell_angle_gamma 69.375
_space_group_name_H-M_alt 'P 1'
_space_group_name_Hall 'P 1'
loop_
    _symmetry_equiv_pos_as_xyz
    x,y,z
loop_
    _atom_site_label
    _atom_site_type_symbol
    _atom_site_fract_x
    _atom_site_fract_y
    _atom_site_fract_z
    _atom_site_occupancy
    N0      N    0.37026   0.26971   0.20112   1.000
    N1      N    0.37022   0.26973   0.70112   1.000
    N2      N    0.37032   0.76972   0.20112   1.000
    N3      N    0.37028   0.76976   0.70113   1.000
    N4      N    0.87026   0.26971   0.20102   1.000
    N5      N    0.87023   0.26973   0.70111   1.000
    N6      N    0.87032   0.76972   0.20111   1.000
    N7      N    0.87028   0.76976   0.70113   1.000
    N8      N    0.25006   0.25008   0.99993   1.000
    N9      N    0.25003   0.75002   0.49995   1.000
    N10     N    0.25002   0.74999   0.00001   1.000
    N11     N    0.75006   0.25005   0.50002   1.000
    N12     N    0.75007   0.25008   0.99995   1.000
    N13     N    0.75004   0.75003   0.49995   1.000
    N14     N    0.75003   0.74999   0.00001   1.000
    N15     N    0.25005   0.25005   0.49998   1.000
    N16     N    0.12981   0.23030   0.29884   1.000
    N17     N    0.12976   0.23034   0.79885   1.000
    N18     N    0.12986   0.73034   0.29877   1.000
    N19     N    0.12983   0.73036   0.79883   1.000
    N20     N    0.62981   0.23031   0.29878   1.000
    N21     N    0.62977   0.23034   0.79884   1.000
    N22     N    0.62987   0.73035   0.29882   1.000
    N23     N    0.62983   0.73036   0.79884   1.000
    Zr24    Zr   0.64566   0.50257   0.24685   1.000
    O25     O    0.63140   0.42410   0.26513   1.000
    O26     O    0.67784   0.42688   0.32247   1.000
    O27     O    0.67754   0.57618   0.17277   1.000
    O28     O    0.64912   0.56708   0.26348   1.000
    O29     O    0.56263   0.58235   0.23252   1.000
    Zr30    Zr   0.35441   0.99743   0.75321   1.000
    O31     O    0.32251   0.92382   0.82728   1.000
    O32     O    0.32224   0.07317   0.67757   1.000
    O33     O    0.43746   0.91767   0.76752   1.000
    O34     O    0.36865   0.07591   0.73489   1.000
    O35     O    0.35098   0.93296   0.73655   1.000
    Zr36    Zr   0.85446   0.49744   0.25316   1.000
    O37     O    0.82257   0.42384   0.32725   1.000
    O38     O    0.93749   0.41766   0.26748   1.000
    O39     O    0.82227   0.57314   0.17754   1.000
    O40     O    0.85100   0.43294   0.23649   1.000
    O41     O    0.86872   0.57591   0.23485   1.000
    Zr42    Zr   0.85444   0.49750   0.75312   1.000
    O43     O    0.82255   0.42390   0.82720   1.000
    O44     O    0.93746   0.41771   0.76745   1.000
    O45     O    0.82225   0.57320   0.67750   1.000
    O46     O    0.85098   0.43299   0.73649   1.000
    O47     O    0.86869   0.57597   0.73483   1.000
    Zr48    Zr   0.85447   0.99745   0.25314   1.000
    O49     O    0.93751   0.91768   0.26745   1.000
    O50     O    0.82229   0.07319   0.17751   1.000
    O51     O    0.86870   0.07592   0.23481   1.000
    O52     O    0.82256   0.92384   0.32721   1.000
    O53     O    0.85103   0.93296   0.23648   1.000
    Zr54    Zr   0.85442   0.99744   0.75321   1.000
    O55     O    0.82224   0.07317   0.67758   1.000
    O56     O    0.85098   0.93296   0.73655   1.000
    O57     O    0.86866   0.07591   0.73488   1.000
    O58     O    0.93746   0.91767   0.76752   1.000
    O59     O    0.82252   0.92382   0.82728   1.000
    Zr60    Zr   0.35446   0.49743   0.25317   1.000
    O61     O    0.32256   0.42383   0.32725   1.000
    O62     O    0.43749   0.41765   0.26747   1.000
    O63     O    0.32226   0.57314   0.17755   1.000
    O64     O    0.36872   0.57591   0.23485   1.000
    O65     O    0.35100   0.43294   0.23652   1.000
    Zr66    Zr   0.35444   0.49750   0.75312   1.000
    O67     O    0.36869   0.57597   0.73483   1.000
    O68     O    0.32255   0.42389   0.82720   1.000
    O69     O    0.43746   0.41771   0.76745   1.000
    O70     O    0.32225   0.57319   0.67749   1.000
    O71     O    0.35097   0.43299   0.73649   1.000
    Zr72    Zr   0.64563   0.50264   0.74681   1.000
    O73     O    0.67783   0.42693   0.82243   1.000
    O74     O    0.67753   0.57624   0.67272   1.000
    O75     O    0.63138   0.42416   0.76512   1.000
    O76     O    0.64909   0.56713   0.76345   1.000
    O77     O    0.56260   0.58241   0.73250   1.000
    Zr78    Zr   0.14562   0.00262   0.74683   1.000
    O79     O    0.06258   0.08239   0.73250   1.000
    O80     O    0.17780   0.92689   0.82246   1.000
    O81     O    0.14905   0.06711   0.76348   1.000
    O82     O    0.17753   0.07623   0.67275   1.000
    O83     O    0.13139   0.92416   0.76513   1.000
    Zr84    Zr   0.14565   0.50257   0.24686   1.000
    O85     O    0.17784   0.42687   0.32247   1.000
    O86     O    0.17754   0.57617   0.17277   1.000
    O87     O    0.14912   0.56708   0.26347   1.000
    O88     O    0.13140   0.42410   0.26515   1.000
    O89     O    0.06263   0.58235   0.23253   1.000
    Zr90    Zr   0.14563   0.50263   0.74681   1.000
    O91     O    0.17782   0.42693   0.82242   1.000
    O92     O    0.13137   0.42416   0.76512   1.000
    O93     O    0.06260   0.58241   0.73250   1.000
    O94     O    0.14909   0.56713   0.76344   1.000
    O95     O    0.17752   0.57623   0.67272   1.000
    Zr96    Zr   0.64567   0.00264   0.24675   1.000
    O97     O    0.67785   0.92691   0.32239   1.000
    O98     O    0.63144   0.92416   0.26507   1.000
    O99     O    0.67757   0.07625   0.17268   1.000
    O100    O    0.64911   0.06711   0.26329   1.000
    O101    O    0.56263   0.08240   0.23244   1.000
    Zr102   Zr   0.64562   0.00263   0.74680   1.000
    O103    O    0.67781   0.92689   0.82244   1.000
    O104    O    0.67753   0.07624   0.67274   1.000
    O105    O    0.63139   0.92416   0.76511   1.000
    O106    O    0.56258   0.08240   0.73248   1.000
    O107    O    0.64906   0.06712   0.76346   1.000
    Zr108   Zr   0.35447   0.99744   0.25314   1.000
    O109    O    0.32256   0.92384   0.32720   1.000
    O110    O    0.43751   0.91768   0.26746   1.000
    O111    O    0.32228   0.07318   0.17750   1.000
    O112    O    0.36870   0.07591   0.23484   1.000
    O113    O    0.35103   0.93296   0.23649   1.000
    Zr114   Zr   0.14567   0.00264   0.24676   1.000
    O115    O    0.17784   0.92690   0.32239   1.000
    O116    O    0.14910   0.06711   0.26342   1.000
    O117    O    0.13143   0.92416   0.26505   1.000
    O118    O    0.17757   0.07625   0.17268   1.000
    O119    O    0.06263   0.08240   0.23242   1.000
    O120    O    0.71483   0.93539   0.23071   1.000
    O121    O    0.71476   0.43539   0.73076   1.000
    O122    O    0.28533   0.56468   0.26919   1.000
    O123    O    0.28526   0.06468   0.76925   1.000
    O124    O    0.78533   0.56469   0.26920   1.000
    O125    O    0.21477   0.93539   0.73078   1.000
    O126    O    0.28531   0.06468   0.26918   1.000
    O127    O    0.28530   0.56473   0.76917   1.000
    O128    O    0.78531   0.06468   0.26912   1.000
    O129    O    0.21478   0.43533   0.23080   1.000
    O130    O    0.78531   0.56474   0.76917   1.000
    O131    O    0.78526   0.06468   0.76924   1.000
    O132    O    0.71479   0.43534   0.23077   1.000
    O133    O    0.21476   0.43538   0.73077   1.000
    O134    O    0.21482   0.93539   0.23073   1.000
    O135    O    0.71478   0.93539   0.73076   1.000
loop_
    _geom_bond_atom_site_label_1
    _geom_bond_atom_site_label_2
    _geom_bond_distance
    _geom_bond_site_symmetry_2
    _ccdc_geom_bond_type
    Zr24   O25       1.58578      .   S
    N20    O25       3.75617      .   S
    Zr24   O26       1.82905      .   S
    N11    O26       4.27126      .   S
    Zr24   O27       1.83164      .   S
    N14    O27       4.27711      .   S
    Zr24   O28       1.68052      .   S
    N22    O28       3.94708      .   S
    Zr24   O29       1.82063      .   S
    N2     O29       4.24996      .   S
    Zr30   O31       1.83160      .   S
    N10    O31       4.27706  1_554   S
    Zr30   O32       1.82947  1_565   S
    N15    O32       4.27211      .   S
    Zr30   O33       1.82071      .   S
    N23    O33       4.25017      .   S
    Zr30   O34       1.58541  1_565   S
    N1     O34       3.75532      .   S
    Zr30   O35       1.68026      .   S
    N3     O35       3.94667      .   S
    Zr36   O37       1.83171      .   S
    N11    O37       4.27722      .   S
    Zr36   O38       1.82063      .   S
    N16    O38       4.24997  1_455   S
    Zr36   O39       1.82909      .   S
    N14    O39       4.27131      .   S
    Zr36   O40       1.68101      .   S
    N4     O40       3.94854      .   S
    Zr36   O41       1.58563      .   S
    N6     O41       3.75575      .   S
    Zr42   O43       1.83163      .   S
    N12    O43       4.27704      .   S
    Zr42   O44       1.82062      .   S
    N17    O44       4.24994  1_455   S
    Zr42   O45       1.82908      .   S
    N13    O45       4.27131      .   S
    Zr42   O46       1.68067      .   S
    N5     O46       3.94755      .   S
    Zr42   O47       1.58559      .   S
    N7     O47       3.75566      .   S
    Zr48   O49       1.82074      .   S
    N18    O49       4.25027  1_455   S
    Zr48   O50       1.82937  1_565   S
    N12    O50       4.27174  1_556   S
    Zr48   O51       1.58515  1_565   S
    N4     O51       3.75459      .   S
    Zr48   O52       1.83164      .   S
    N13    O52       4.27716      .   S
    Zr48   O53       1.68052      .   S
    N6     O53       3.94667      .   S
    Zr54   O55       1.82931  1_565   S
    N11    O55       4.27166      .   S
    Zr54   O56       1.68027      .   S
    N7     O56       3.94671      .   S
    Zr54   O57       1.58538  1_565   S
    N5     O57       3.75529      .   S
    Zr54   O58       1.82070      .   S
    N19    O58       4.25015  1_455   S
    Zr54   O59       1.83158      .   S
    N14    O59       4.27702  1_554   S
    Zr60   O61       1.83156      .   S
    N15    O61       4.27683      .   S
    Zr60   O62       1.82068      .   S
    N20    O62       4.25010      .   S
    Zr60   O63       1.82914      .   S
    N10    O63       4.27138      .   S
    Zr60   O64       1.58554      .   S
    N2     O64       3.75583      .   S
    Zr60   O65       1.68057      .   S
    N0     O65       3.94724      .   S
    Zr66   O67       1.58561      .   S
    N3     O67       3.75568      .   S
    Zr66   O68       1.83157      .   S
    N8     O68       4.27686      .   S
    Zr66   O69       1.82064      .   S
    N21    O69       4.24999      .   S
    Zr66   O70       1.82910      .   S
    N9     O70       4.27135      .   S
    Zr66   O71       1.68065      .   S
    N1     O71       3.94749      .   S
    Zr72   O73       1.82905      .   S
    N12    O73       4.27123      .   S
    Zr72   O74       1.83172      .   S
    N13    O74       4.27727      .   S
    Zr72   O75       1.58573      .   S
    N21    O75       3.75596      .   S
    Zr72   O76       1.68048      .   S
    N23    O76       3.94702      .   S
    Zr72   O77       1.82063      .   S
    N3     O77       4.24997      .   S
    Zr78   O79       1.82068      .   S
    N5     O79       4.25008  1_655   S
    Zr78   O80       1.82936  1_545   S
    N10    O80       4.27172  1_554   S
    Zr78   O81       1.68025      .   S
    N17    O81       3.94667      .   S
    Zr78   O82       1.83178      .   S
    N15    O82       4.27752      .   S
    Zr78   O83       1.58539  1_545   S
    N19    O83       3.75542      .   S
    Zr84   O85       1.82885      .   S
    N15    O85       4.27067      .   S
    Zr84   O86       1.83167      .   S
    N10    O86       4.27715      .   S
    Zr84   O87       1.68021      .   S
    N18    O87       3.94627      .   S
    Zr84   O88       1.58567      .   S
    N16    O88       3.75584      .   S
    Zr84   O89       1.82062      .   S
    N6     O89       4.24991  1_655   S
    Zr90   O91       1.82897      .   S
    N8     O91       4.27093      .   S
    Zr90   O92       1.58570      .   S
    N17    O92       3.75587      .   S
    Zr90   O93       1.82063      .   S
    N7     O93       4.24995  1_655   S
    Zr90   O94       1.68028      .   S
    N19    O94       3.94718      .   S
    Zr90   O95       1.83172      .   S
    N9     O95       4.27729      .   S
    Zr96   O97       1.82937  1_545   S
    N13    O97       4.27174      .   S
    Zr96   O98       1.58543  1_545   S
    N22    O98       3.75548      .   S
    Zr96   O99       1.83157      .   S
    N12    O99       4.27700  1_556   S
    Zr96   O100      1.67794      .   S
    N20    O100      3.94793      .   S
    Zr96   O101      1.82070      .   S
    N0     O101      4.25014      .   S
    Zr102  O103      1.82954  1_545   S
    N14    O103      4.27201  1_554   S
    Zr102  O104      1.83152      .   S
    N11    O104      4.27695      .   S
    Zr102  O105      1.58532  1_545   S
    N23    O105      3.75525      .   S
    Zr102  O106      1.82071      .   S
    N1     O106      4.25015      .   S
    Zr102  O107      1.68039      .   S
    N21    O107      3.94683      .   S
    Zr108  O109      1.83150      .   S
    N9     O109      4.27730      .   S
    Zr108  O110      1.82072      .   S
    N22    O110      4.25016      .   S
    Zr108  O111      1.82946  1_565   S
    N8     O111      4.27203  1_556   S
    Zr108  O112      1.58539  1_565   S
    N0     O112      3.75534      .   S
    Zr108  O113      1.68029      .   S
    N2     O113      3.94676      .   S
    Zr114  O115      1.82928  1_545   S
    N9     O115      4.27158      .   S
    Zr114  O116      1.68022      .   S
    N16    O116      3.94654      .   S
    Zr114  O117      1.58561  1_545   S
    N18    O117      3.75585      .   S
    Zr114  O118      1.83168      .   S
    N8     O118      4.27726  1_556   S
    Zr114  O119      1.82062      .   S
    N4     O119      4.24993  1_655   S
    N6     O120      4.05547      .   S
    Zr96   O120      1.74307  1_545   S
    Zr72   O121      1.74299      .   S
    N5     O121      4.05572      .   S
    Zr60   O122      1.74267      .   S
    N18    O122      4.05485      .   S
    N17    O123      4.05548      .   S
    Zr30   O123      1.74300  1_565   S
    Zr36   O124      1.74288      .   S
    N22    O124      4.05540      .   S
    Zr78   O125      1.74301  1_545   S
    N3     O125      4.05553      .   S
    N16    O126      4.05552      .   S
    Zr108  O126      1.74292  1_565   S
    Zr66   O127      1.74282      .   S
    N19    O127      4.05547      .   S
    N20    O128      4.05562      .   S
    Zr48   O128      1.74208  1_565   S
    Zr84   O129      1.74294      .   S
    N0     O129      4.05555      .   S
    Zr42   O130      1.74289      .   S
    N23    O130      4.05543      .   S
    Zr54   O131      1.74294  1_565   S
    N21    O131      4.05537      .   S
    Zr24   O132      1.74325      .   S
    N4     O132      4.05647      .   S
    N1     O133      4.05566      .   S
    Zr90   O133      1.74295      .   S
    N2     O134      4.05552      .   S
    Zr114  O134      1.74301  1_545   S
    N7     O135      4.05534      .   S
    Zr102  O135      1.74289  1_545   S
