# CIF file generated by openbabel 2.4.90, see http://openbabel.sf.net
data_I
_chemical_name_common ''
_cell_length_a 19.314
_cell_length_b 21.4
_cell_length_c 26.004
_cell_angle_alpha 57.185
_cell_angle_beta 75.071
_cell_angle_gamma 69.375
_space_group_name_H-M_alt 'P 1'
_space_group_name_Hall 'P 1'
loop_
    _symmetry_equiv_pos_as_xyz
    x,y,z
loop_
    _atom_site_label
    _atom_site_type_symbol
    _atom_site_fract_x
    _atom_site_fract_y
    _atom_site_fract_z
    _atom_site_occupancy
    Zr0     Zr   0.14567   0.00264   0.24676   1.000
    Zr1     Zr   0.14562   0.00262   0.74683   1.000
    Zr2     Zr   0.14565   0.50257   0.24686   1.000
    Zr3     Zr   0.14563   0.50263   0.74681   1.000
    Zr4     Zr   0.64567   0.00264   0.24675   1.000
    Zr5     Zr   0.64562   0.00263   0.74680   1.000
    Zr6     Zr   0.64566   0.50257   0.24685   1.000
    Zr7     Zr   0.64563   0.50264   0.74681   1.000
    Zr8     Zr   0.35446   0.49743   0.25317   1.000
    Zr9     Zr   0.35444   0.49750   0.75312   1.000
    Zr10    Zr   0.35447   0.99744   0.25314   1.000
    Zr11    Zr   0.35441   0.99743   0.75321   1.000
    Zr12    Zr   0.85446   0.49744   0.25316   1.000
    Zr13    Zr   0.85444   0.49750   0.75312   1.000
    Zr14    Zr   0.85447   0.99745   0.25314   1.000
    Zr15    Zr   0.85442   0.99744   0.75321   1.000
    N16     N    0.37026   0.26971   0.20112   1.000
    O17     O    0.27250   0.36647   0.21119   1.000
    O18     O    0.34754   0.36844   0.21988   1.000
    O19     O    0.29533   0.36972   0.21830   1.000
    O20     O    0.47958   0.16216   0.21814   1.000
    O21     O    0.38293   0.15438   0.21653   1.000
    N22     N    0.37022   0.26973   0.70112   1.000
    O23     O    0.27247   0.36651   0.71117   1.000
    O24     O    0.34750   0.36848   0.71985   1.000
    O25     O    0.29530   0.36976   0.71828   1.000
    O26     O    0.47954   0.16217   0.71816   1.000
    O27     O    0.38289   0.15439   0.71656   1.000
    N28     N    0.37032   0.76972   0.20112   1.000
    O29     O    0.27256   0.86652   0.21113   1.000
    O30     O    0.34759   0.86847   0.21984   1.000
    O31     O    0.29539   0.86976   0.21825   1.000
    O32     O    0.47961   0.66214   0.21819   1.000
    O33     O    0.38297   0.65438   0.21653   1.000
    N34     N    0.37028   0.76976   0.70113   1.000
    O35     O    0.27252   0.86654   0.71117   1.000
    O36     O    0.34754   0.86848   0.71988   1.000
    O37     O    0.29535   0.86978   0.71829   1.000
    O38     O    0.47958   0.66219   0.71818   1.000
    O39     O    0.38294   0.65443   0.71653   1.000
    N40     N    0.87026   0.26971   0.20102   1.000
    O41     O    0.77251   0.36647   0.21114   1.000
    O42     O    0.84754   0.36844   0.21982   1.000
    O43     O    0.79534   0.36973   0.21824   1.000
    O44     O    0.97958   0.16216   0.21807   1.000
    O45     O    0.88294   0.15439   0.21648   1.000
    N46     N    0.87023   0.26973   0.70111   1.000
    O47     O    0.77248   0.36651   0.71116   1.000
    O48     O    0.84751   0.36848   0.71985   1.000
    O49     O    0.79531   0.36977   0.71827   1.000
    O50     O    0.97954   0.16217   0.71817   1.000
    O51     O    0.88289   0.15439   0.71656   1.000
    N52     N    0.87032   0.76972   0.20111   1.000
    O53     O    0.77257   0.86652   0.21113   1.000
    O54     O    0.84760   0.86847   0.21982   1.000
    O55     O    0.79540   0.86977   0.21822   1.000
    O56     O    0.97961   0.66214   0.21820   1.000
    O57     O    0.88298   0.65438   0.21654   1.000
    N58     N    0.87028   0.76976   0.70113   1.000
    O59     O    0.77252   0.86654   0.71116   1.000
    O60     O    0.84755   0.86848   0.71988   1.000
    O61     O    0.79535   0.86978   0.71828   1.000
    O62     O    0.97958   0.66219   0.71819   1.000
    O63     O    0.88294   0.65444   0.71653   1.000
    N64     N    0.25006   0.25008   0.99993   1.000
    O65     O    0.21002   0.35122   0.89804   1.000
    O66     O    0.29066   0.35029   0.90127   1.000
    O67     O    0.29010   0.14892   0.10186   1.000
    O68     O    0.20947   0.14986   0.09861   1.000
    N69     N    0.25003   0.75002   0.49995   1.000
    O70     O    0.21002   0.85117   0.39802   1.000
    O71     O    0.29065   0.85023   0.40126   1.000
    O72     O    0.29006   0.64889   0.60187   1.000
    O73     O    0.20942   0.64983   0.59863   1.000
    N74     N    0.25002   0.74999   0.00001   1.000
    O75     O    0.20998   0.85115   0.89809   1.000
    O76     O    0.29061   0.85021   0.90135   1.000
    O77     O    0.29007   0.64884   0.10192   1.000
    O78     O    0.20943   0.64978   0.09869   1.000
    N79     N    0.75006   0.25005   0.50002   1.000
    O80     O    0.70944   0.14984   0.59868   1.000
    O81     O    0.71003   0.35118   0.39810   1.000
    O82     O    0.79067   0.35024   0.40134   1.000
    O83     O    0.79007   0.14890   0.60194   1.000
    N84     N    0.75007   0.25008   0.99995   1.000
    O85     O    0.71003   0.35123   0.89804   1.000
    O86     O    0.79066   0.35029   0.90128   1.000
    O87     O    0.79010   0.14892   0.10187   1.000
    O88     O    0.70947   0.14986   0.09861   1.000
    N89     N    0.75004   0.75003   0.49995   1.000
    O90     O    0.70943   0.64984   0.59863   1.000
    O91     O    0.71002   0.85117   0.39802   1.000
    O92     O    0.79065   0.85023   0.40128   1.000
    O93     O    0.79007   0.64890   0.60187   1.000
    N94     N    0.75003   0.74999   0.00001   1.000
    O95     O    0.70943   0.64979   0.09868   1.000
    O96     O    0.70999   0.85115   0.89808   1.000
    O97     O    0.79062   0.85021   0.90135   1.000
    O98     O    0.79007   0.64885   0.10192   1.000
    N99     N    0.25005   0.25005   0.49998   1.000
    O100    O    0.21003   0.35118   0.39808   1.000
    O101    O    0.29066   0.35023   0.40132   1.000
    O102    O    0.29006   0.14890   0.60193   1.000
    O103    O    0.20943   0.14984   0.59867   1.000
    N104    N    0.12981   0.23030   0.29884   1.000
    O105    O    0.02051   0.33788   0.28179   1.000
    O106    O    0.11715   0.34563   0.28344   1.000
    O107    O    0.22757   0.13353   0.28878   1.000
    O108    O    0.15254   0.13159   0.28008   1.000
    O109    O    0.20474   0.13029   0.28168   1.000
    N110    N    0.12976   0.23034   0.79885   1.000
    O111    O    0.02048   0.33793   0.78178   1.000
    O112    O    0.11711   0.34568   0.78343   1.000
    O113    O    0.22752   0.13354   0.78884   1.000
    O114    O    0.15249   0.13160   0.78013   1.000
    O115    O    0.20469   0.13030   0.78172   1.000
    N116    N    0.12986   0.73034   0.29877   1.000
    O117    O    0.02055   0.83791   0.28176   1.000
    O118    O    0.11720   0.84569   0.28335   1.000
    O119    O    0.22761   0.63356   0.28876   1.000
    O120    O    0.15258   0.63159   0.28008   1.000
    O121    O    0.20478   0.63030   0.28166   1.000
    N122    N    0.12983   0.73036   0.79883   1.000
    O123    O    0.02051   0.83791   0.78182   1.000
    O124    O    0.11715   0.84569   0.78343   1.000
    O125    O    0.22758   0.63360   0.78877   1.000
    O126    O    0.15255   0.63163   0.78007   1.000
    O127    O    0.20475   0.63034   0.78165   1.000
    N128    N    0.62981   0.23031   0.29878   1.000
    O129    O    0.52051   0.33788   0.28177   1.000
    O130    O    0.61715   0.34563   0.28341   1.000
    O131    O    0.72757   0.13353   0.28877   1.000
    O132    O    0.65254   0.13159   0.27983   1.000
    O133    O    0.70474   0.13029   0.28143   1.000
    N134    N    0.62977   0.23034   0.79884   1.000
    O135    O    0.52048   0.33793   0.78178   1.000
    O136    O    0.61712   0.34568   0.78342   1.000
    O137    O    0.72753   0.13355   0.78883   1.000
    O138    O    0.65250   0.13160   0.78011   1.000
    O139    O    0.70469   0.13031   0.78172   1.000
    N140    N    0.62987   0.73035   0.29882   1.000
    O141    O    0.52055   0.83791   0.28177   1.000
    O142    O    0.61720   0.84569   0.28339   1.000
    O143    O    0.72762   0.63357   0.28879   1.000
    O144    O    0.65259   0.63159   0.28010   1.000
    O145    O    0.70479   0.63031   0.28168   1.000
    N146    N    0.62983   0.73036   0.79884   1.000
    O147    O    0.52051   0.83791   0.78182   1.000
    O148    O    0.61716   0.84569   0.78342   1.000
    O149    O    0.72759   0.63360   0.78878   1.000
    O150    O    0.65256   0.63163   0.78009   1.000
    O151    O    0.70476   0.63035   0.78167   1.000
loop_
    _geom_bond_atom_site_label_1
    _geom_bond_atom_site_label_2
    _geom_bond_distance
    _geom_bond_site_symmetry_2
    _ccdc_geom_bond_type
    N16    O17       2.34511      .   S
    Zr2    O17       3.47495      .   S
    N16    O18       2.29084      .   S
    Zr8    O18       3.36114      .   S
    N16    O19       2.32286      .   S
    Zr2    O19       3.51894      .   S
    N16    O20       2.43006      .   S
    Zr4    O20       3.64140      .   S
    N16    O21       2.20555      .   S
    Zr10   O21       3.17079  1_565   S
    N22    O23       2.34520      .   S
    Zr3    O23       3.47498      .   S
    N22    O24       2.29100      .   S
    Zr9    O24       3.36130      .   S
    N22    O25       2.32297      .   S
    Zr3    O25       3.51896      .   S
    N22    O26       2.43005      .   S
    Zr5    O26       3.64142      .   S
    N22    O27       2.20550      .   S
    Zr11   O27       3.17082  1_565   S
    N28    O29       2.34514      .   S
    Zr0    O29       3.47496  1_545   S
    N28    O30       2.29060      .   S
    Zr10   O30       3.36057      .   S
    N28    O31       2.32270      .   S
    Zr0    O31       3.51921  1_545   S
    N28    O32       2.42994      .   S
    Zr6    O32       3.64126      .   S
    N28    O33       2.20593      .   S
    Zr8    O33       3.17109      .   S
    N34    O35       2.34513      .   S
    Zr1    O35       3.47498  1_545   S
    N34    O36       2.29054      .   S
    Zr11   O36       3.36052      .   S
    N34    O37       2.32270      .   S
    Zr1    O37       3.51920  1_545   S
    N34    O38       2.42995      .   S
    Zr7    O38       3.64127      .   S
    N34    O39       2.20569      .   S
    Zr9    O39       3.17121      .   S
    N40    O41       2.34563      .   S
    Zr6    O41       3.47562      .   S
    N40    O42       2.29167      .   S
    Zr12   O42       3.36202      .   S
    N40    O43       2.32353      .   S
    Zr6    O43       3.51952      .   S
    N40    O44       2.42993      .   S
    Zr0    O44       3.64125  1_455   S
    N40    O45       2.20504      .   S
    Zr14   O45       3.17031  1_565   S
    N46    O47       2.34521      .   S
    Zr7    O47       3.47507      .   S
    N46    O48       2.29104      .   S
    Zr13   O48       3.36134      .   S
    N46    O49       2.32300      .   S
    Zr7    O49       3.51903      .   S
    N46    O50       2.43001      .   S
    Zr1    O50       3.64136  1_455   S
    N46    O51       2.20550      .   S
    Zr15   O51       3.17076  1_565   S
    N52    O53       2.34516      .   S
    Zr4    O53       3.47494  1_545   S
    N52    O54       2.29029      .   S
    Zr14   O54       3.36105      .   S
    N52    O55       2.32242      .   S
    Zr4    O55       3.51945  1_545   S
    N52    O56       2.42990      .   S
    Zr2    O56       3.64123  1_455   S
    N52    O57       2.20572      .   S
    Zr12   O57       3.17127      .   S
    N58    O59       2.34507      .   S
    Zr5    O59       3.47471  1_545   S
    N58    O60       2.29057      .   S
    Zr15   O60       3.36054      .   S
    N58    O61       2.32262      .   S
    Zr5    O61       3.51898  1_545   S
    N58    O62       2.42993      .   S
    Zr3    O62       3.64126  1_455   S
    N58    O63       2.20569      .   S
    Zr13   O63       3.17119      .   S
    N64    O65       2.44224      .   S
    Zr3    O65       3.65794      .   S
    N64    O66       2.44549      .   S
    Zr9    O66       3.66314      .   S
    N64    O67       2.44283  1_556   S
    Zr10   O67       3.65893  1_565   S
    N64    O68       2.44578  1_556   S
    Zr0    O68       3.66335      .   S
    N69    O70       2.44257      .   S
    Zr0    O70       3.65857  1_545   S
    N69    O71       2.44599      .   S
    Zr10   O71       3.66300      .   S
    N69    O72       2.44252      .   S
    Zr9    O72       3.65820      .   S
    N69    O73       2.44576      .   S
    Zr3    O73       3.66345      .   S
    N74    O75       2.44264  1_554   S
    Zr1    O75       3.65871  1_545   S
    N74    O76       2.44566  1_554   S
    Zr11   O76       3.66321      .   S
    N74    O77       2.44251      .   S
    Zr8    O77       3.65829      .   S
    N74    O78       2.44567      .   S
    Zr2    O78       3.66334      .   S
    N79    O80       2.44563      .   S
    Zr5    O80       3.66304      .   S
    N79    O81       2.44248      .   S
    Zr6    O81       3.65811      .   S
    N79    O82       2.44570      .   S
    Zr12   O82       3.66342      .   S
    N79    O83       2.44262      .   S
    Zr15   O83       3.65862  1_565   S
    N84    O85       2.44246      .   S
    Zr7    O85       3.65809      .   S
    N84    O86       2.44561      .   S
    Zr13   O86       3.66325      .   S
    N84    O87       2.44265  1_556   S
    Zr14   O87       3.65873  1_565   S
    N84    O88       2.44563  1_556   S
    Zr4    O88       3.66314      .   S
    N89    O90       2.44575      .   S
    Zr7    O90       3.66344      .   S
    N89    O91       2.44264      .   S
    Zr4    O91       3.65874  1_545   S
    N89    O92       2.44571      .   S
    Zr14   O92       3.66329      .   S
    N89    O93       2.44250      .   S
    Zr13   O93       3.65817      .   S
    N94    O95       2.44567      .   S
    Zr6    O95       3.66328      .   S
    N94    O96       2.44274  1_554   S
    Zr5    O96       3.65909  1_545   S
    N94    O97       2.44563  1_554   S
    Zr15   O97       3.66317      .   S
    N94    O98       2.44250      .   S
    Zr12   O98       3.65818      .   S
    N99    O100      2.44210      .   S
    Zr2    O100      3.65770      .   S
    N99    O101      2.44546      .   S
    Zr8    O101      3.66313      .   S
    N99    O102      2.44292      .   S
    Zr11   O102      3.65894  1_565   S
    N99    O103      2.44594      .   S
    Zr1    O103      3.66355      .   S
    N104   O105      2.42994      .   S
    Zr12   O105      3.64127  1_655   S
    N104   O106      2.20579      .   S
    Zr2    O106      3.17134      .   S
    N104   O107      2.34532      .   S
    Zr10   O107      3.47461  1_565   S
    N104   O108      2.29046      .   S
    Zr0    O108      3.36043      .   S
    N104   O109      2.32263      .   S
    Zr10   O109      3.51918  1_565   S
    N110   O111      2.42992      .   S
    Zr13   O111      3.64125  1_655   S
    N110   O112      2.20578      .   S
    Zr3    O112      3.17139      .   S
    N110   O113      2.34511      .   S
    Zr11   O113      3.47494  1_565   S
    N110   O114      2.29055      .   S
    Zr1    O114      3.36050      .   S
    N110   O115      2.32266      .   S
    Zr11   O115      3.51919  1_565   S
    N116   O117      2.43015      .   S
    Zr14   O117      3.64147  1_655   S
    N116   O118      2.20582      .   S
    Zr0    O118      3.17122  1_545   S
    N116   O119      2.34476      .   S
    Zr8    O119      3.47436      .   S
    N116   O120      2.29023      .   S
    Zr2    O120      3.36043      .   S
    N116   O121      2.32237      .   S
    Zr8    O121      3.51846      .   S
    N122   O123      2.43007      .   S
    Zr15   O123      3.64141  1_655   S
    N122   O124      2.20564      .   S
    Zr1    O124      3.17077  1_545   S
    N122   O125      2.34504      .   S
    Zr9    O125      3.47484      .   S
    N122   O126      2.29104      .   S
    Zr3    O126      3.36057      .   S
    N122   O127      2.32304      .   S
    Zr9    O127      3.51861      .   S
    N128   O129      2.43004      .   S
    Zr8    O129      3.64135      .   S
    N128   O130      2.20601      .   S
    Zr6    O130      3.17155      .   S
    N128   O131      2.34483      .   S
    Zr14   O131      3.47448  1_565   S
    N128   O132      2.29392      .   S
    Zr4    O132      3.35589      .   S
    N128   O133      2.32536      .   S
    Zr14   O133      3.51627  1_565   S
    N134   O135      2.42996      .   S
    Zr9    O135      3.64128      .   S
    N134   O136      2.20584      .   S
    Zr7    O136      3.17146      .   S
    N134   O137      2.34507      .   S
    Zr15   O137      3.47480  1_565   S
    N134   O138      2.29057      .   S
    Zr5    O138      3.36078      .   S
    N134   O139      2.32258      .   S
    Zr15   O139      3.51910  1_565   S
    N140   O141      2.43005      .   S
    Zr10   O141      3.64144      .   S
    N140   O142      2.20565      .   S
    Zr4    O142      3.17085  1_545   S
    N140   O143      2.34504      .   S
    Zr12   O143      3.47482      .   S
    N140   O144      2.29073      .   S
    Zr6    O144      3.36105      .   S
    N140   O145      2.32277      .   S
    Zr12   O145      3.51882      .   S
    N146   O147      2.43008      .   S
    Zr11   O147      3.64142      .   S
    N146   O148      2.20554      .   S
    Zr5    O148      3.17063  1_545   S
    N146   O149      2.34505      .   S
    Zr13   O149      3.47484      .   S
    N146   O150      2.29071      .   S
    Zr7    O150      3.36097      .   S
    N146   O151      2.32278      .   S
    Zr13   O151      3.51884      .   S
