# CIF file generated by openbabel 2.4.90, see http://openbabel.sf.net
data_I
_chemical_name_common ''
_cell_length_a 12.333
_cell_length_b 13.793
_cell_length_c 17.568
_cell_angle_alpha 90.008
_cell_angle_beta 93.554
_cell_angle_gamma 89.971
_space_group_name_H-M_alt 'P 1'
_space_group_name_Hall 'P 1'
loop_
    _symmetry_equiv_pos_as_xyz
    x,y,z
loop_
    _atom_site_label
    _atom_site_type_symbol
    _atom_site_fract_x
    _atom_site_fract_y
    _atom_site_fract_z
    _atom_site_occupancy
    N0      N    0.34510   0.37228   0.47398   1.000
    N1      N    0.99785   0.21516   0.00073   1.000
    N2      N    0.80380   0.49093   0.09386   1.000
    N3      N    0.49797   0.28484   0.00069   1.000
    N4      N    0.69615   0.99085   0.90609   1.000
    N5      N    0.15496   0.87222   0.52595   1.000
    N6      N    0.30381   0.00918   0.09388   1.000
    N7      N    0.50198   0.71519   0.99929   1.000
    N8      N    0.00210   0.78486   0.99925   1.000
    N9      N    0.19615   0.50910   0.90611   1.000
    N10     N    0.84500   0.12781   0.47400   1.000
    N11     N    0.65485   0.62774   0.52595   1.000
    Zr12    Zr   0.93484   0.02503   0.90344   1.000
    O13     O    0.95719   0.08493   0.93784   1.000
    O14     O    0.95905   0.94885   0.93174   1.000
    O15     O    0.85495   0.01602   0.90641   1.000
    O16     O    0.91654   0.06005   0.78441   1.000
    Zr17    Zr   0.43487   0.47498   0.90345   1.000
    O18     O    0.45902   0.55117   0.93176   1.000
    O19     O    0.35497   0.48395   0.90642   1.000
    O20     O    0.45726   0.41507   0.93783   1.000
    O21     O    0.41659   0.43998   0.78441   1.000
    Zr22    Zr   0.96227   0.59502   0.92620   1.000
    O23     O    0.87109   0.60332   0.81585   1.000
    O24     O    0.97601   0.66009   0.94778   1.000
    O25     O    0.03756   0.56361   0.92126   1.000
    O26     O    0.91147   0.56278   0.97881   1.000
    Zr27    Zr   0.06511   0.97500   0.09653   1.000
    O28     O    0.04090   0.05117   0.06823   1.000
    O29     O    0.14500   0.98400   0.09356   1.000
    O30     O    0.04277   0.91509   0.06214   1.000
    O31     O    0.08341   0.93998   0.21555   1.000
    Zr32    Zr   0.03769   0.40500   0.07374   1.000
    O33     O    0.02394   0.33993   0.05217   1.000
    O34     O    0.96239   0.43641   0.07869   1.000
    O35     O    0.08848   0.43724   0.02114   1.000
    O36     O    0.12887   0.39670   0.18409   1.000
    Zr37    Zr   0.46231   0.90504   0.92621   1.000
    O38     O    0.41150   0.93731   0.97881   1.000
    O39     O    0.47600   0.83997   0.94780   1.000
    O40     O    0.53758   0.93641   0.92126   1.000
    O41     O    0.37114   0.89671   0.81586   1.000
    Zr42    Zr   0.56508   0.52505   0.09650   1.000
    O43     O    0.58336   0.56004   0.21543   1.000
    O44     O    0.64498   0.51607   0.09354   1.000
    O45     O    0.54270   0.58496   0.06213   1.000
    O46     O    0.54093   0.44886   0.06820   1.000
    Zr47    Zr   0.53765   0.09498   0.07376   1.000
    O48     O    0.62882   0.10331   0.18411   1.000
    O49     O    0.46237   0.06362   0.07871   1.000
    O50     O    0.52396   0.16005   0.05217   1.000
    O51     O    0.58845   0.06271   0.02116   1.000
loop_
    _geom_bond_atom_site_label_1
    _geom_bond_atom_site_label_2
    _geom_bond_distance
    _geom_bond_site_symmetry_2
    _ccdc_geom_bond_type
    Zr12   O13       1.05037      .   S
    N1     O13       2.15182  1_554   S
    Zr12   O14       1.19238  1_545   S
    N8     O14       2.59340  1_455   S
    Zr12   O15       0.99778      .   S
    N4     O15       1.98889  1_565   S
    Zr12   O16       2.14440      .   S
    N10    O16       5.54932      .   S
    Zr17   O18       1.19263      .   S
    N7     O18       2.59392      .   S
    Zr17   O19       0.99766      .   S
    N9     O19       1.98863      .   S
    Zr17   O20       1.05025      .   S
    N3     O20       2.15156  1_554   S
    Zr17   O21       2.14443      .   S
    N0     O21       5.54930      .   S
    Zr22   O23       2.18301      .   S
    N11    O23       5.61065      .   S
    Zr22   O24       0.98488      .   S
    N8     O24       1.96139  1_455   S
    Zr22   O25       1.03297  1_655   S
    N9     O25       2.12721      .   S
    Zr22   O26       1.23150      .   S
    N2     O26       2.67687  1_554   S
    Zr27   O28       1.19235  1_565   S
    N1     O28       2.59337  1_655   S
    Zr27   O29       0.99778      .   S
    N6     O29       1.98889  1_545   S
    Zr27   O30       1.05035      .   S
    N8     O30       2.15180  1_556   S
    Zr27   O31       2.14436      .   S
    N5     O31       5.54911      .   S
    Zr32   O33       0.98479      .   S
    N1     O33       1.96123  1_655   S
    Zr32   O34       1.03299  1_455   S
    N2     O34       2.12727      .   S
    Zr32   O35       1.23132      .   S
    N9     O35       2.67662  1_556   S
    Zr32   O36       2.18306      .   S
    N0     O36       5.61048      .   S
    Zr37   O38       1.23135      .   S
    N6     O38       2.67661  1_544   S
    Zr37   O39       0.98486      .   S
    N7     O39       1.96137      .   S
    Zr37   O40       1.03296      .   S
    N4     O40       2.12729      .   S
    Zr37   O41       2.18306      .   S
    N5     O41       5.61053      .   S
    Zr42   O43       2.14250      .   S
    N11    O43       5.55093      .   S
    Zr42   O44       0.99764      .   S
    N2     O44       1.98862      .   S
    Zr42   O45       1.05017      .   S
    N7     O45       2.15143  1_556   S
    Zr42   O46       1.19256      .   S
    N3     O46       2.59381      .   S
    Zr47   O48       2.18301      .   S
    N10    O48       5.61036      .   S
    Zr47   O49       1.03296      .   S
    N6     O49       2.12730      .   S
    Zr47   O50       0.98484      .   S
    N3     O50       1.96136      .   S
    Zr47   O51       1.23133      .   S
    N4     O51       2.67661  1_566   S
