# CIF file generated by openbabel 2.4.90, see http://openbabel.sf.net
data_I
_chemical_name_common ''
_cell_length_a 12.333
_cell_length_b 13.793
_cell_length_c 17.568
_cell_angle_alpha 90.008
_cell_angle_beta 93.554
_cell_angle_gamma 89.971
_space_group_name_H-M_alt 'P 1'
_space_group_name_Hall 'P 1'
loop_
    _symmetry_equiv_pos_as_xyz
    x,y,z
loop_
    _atom_site_label
    _atom_site_type_symbol
    _atom_site_fract_x
    _atom_site_fract_y
    _atom_site_fract_z
    _atom_site_occupancy
    C0      C    0.43487   0.47498   0.90345   1.000
    C1      C    0.46231   0.90504   0.92621   1.000
    C2      C    0.06511   0.97500   0.09653   1.000
    C3      C    0.03769   0.40500   0.07374   1.000
    C4      C    0.56508   0.52505   0.09650   1.000
    C5      C    0.53765   0.09498   0.07376   1.000
    C6      C    0.93484   0.02503   0.90344   1.000
    C7      C    0.96227   0.59502   0.92620   1.000
    C8      C    0.46556   0.69668   0.84206   1.000
    C9      C    0.27735   0.38919   0.02326   1.000
    C10     C    0.53114   0.29105   0.70805   1.000
    C11     C    0.53380   0.22680   0.57492   1.000
    C12     C    0.35192   0.47562   0.49170   1.000
    C13     C    0.35018   0.53956   0.62450   1.000
    C14     C    0.23545   0.28748   0.46964   1.000
    C15     C    0.09183   0.31257   0.36443   1.000
    C16     C    0.33699   0.39100   0.21238   1.000
    C17     C    0.48140   0.36322   0.31620   1.000
    C18     C    0.25944   0.57971   0.79541   1.000
    C19     C    0.12029   0.61218   0.80143   1.000
    C20     C    0.52751   0.72922   0.13791   1.000
    C21     C    0.50149   0.83850   0.09163   1.000
    C22     C    0.03433   0.19667   0.15795   1.000
    C23     C    0.22263   0.88954   0.97657   1.000
    C24     C    0.96925   0.79083   0.29186   1.000
    C25     C    0.96661   0.72661   0.42499   1.000
    C26     C    0.14792   0.97559   0.50820   1.000
    C27     C    0.14966   0.03947   0.37549   1.000
    C28     C    0.26461   0.78726   0.53036   1.000
    C29     C    0.40821   0.81237   0.63555   1.000
    C30     C    0.16301   0.89115   0.78755   1.000
    C31     C    0.01862   0.86334   0.68374   1.000
    C32     C    0.24052   0.07958   0.20471   1.000
    C33     C    0.37965   0.11207   0.19868   1.000
    C34     C    0.97227   0.22917   0.86211   1.000
    C35     C    0.99836   0.33842   0.90839   1.000
    C36     C    0.53439   0.30335   0.15792   1.000
    C37     C    0.72260   0.61084   0.97671   1.000
    C38     C    0.46881   0.70898   0.29192   1.000
    C39     C    0.46615   0.77323   0.42506   1.000
    C40     C    0.64804   0.52441   0.50825   1.000
    C41     C    0.64978   0.46047   0.37548   1.000
    C42     C    0.76450   0.71254   0.53034   1.000
    C43     C    0.90812   0.68746   0.63550   1.000
    C44     C    0.66296   0.60903   0.78759   1.000
    C45     C    0.51855   0.63681   0.68378   1.000
    C46     C    0.74051   0.42031   0.20457   1.000
    C47     C    0.87967   0.38784   0.19850   1.000
    C48     C    0.47244   0.27081   0.86207   1.000
    C49     C    0.49846   0.16153   0.90830   1.000
    C50     C    0.96562   0.80335   0.84203   1.000
    C51     C    0.77732   0.11049   0.02340   1.000
    C52     C    0.03071   0.20919   0.70812   1.000
    C53     C    0.03335   0.27341   0.57499   1.000
    C54     C    0.85203   0.02443   0.49171   1.000
    C55     C    0.85029   0.96055   0.62448   1.000
    C56     C    0.73534   0.21277   0.46962   1.000
    C57     C    0.59174   0.18766   0.36442   1.000
    C58     C    0.83695   0.10888   0.21243   1.000
    C59     C    0.98133   0.13668   0.31623   1.000
    C60     C    0.75943   0.92044   0.79526   1.000
    C61     C    0.62031   0.88795   0.80130   1.000
    C62     C    0.02769   0.77085   0.13787   1.000
    C63     C    0.00160   0.66160   0.09159   1.000
    C64     C    0.48174   0.68883   0.90313   1.000
    C65     C    0.51109   0.72121   0.02252   1.000
    C66     C    0.18731   0.52952   0.88814   1.000
    C67     C    0.23126   0.43478   0.98270   1.000
    C68     C    0.43418   0.45676   0.75386   1.000
    C69     C    0.43895   0.41879   0.67507   1.000
    C70     C    0.49159   0.33096   0.66060   1.000
    C71     C    0.49359   0.29503   0.58676   1.000
    C72     C    0.44165   0.34662   0.52630   1.000
    C73     C    0.39015   0.43515   0.53930   1.000
    C74     C    0.38936   0.47059   0.61345   1.000
    C75     C    0.36593   0.32573   0.39865   1.000
    C76     C    0.25693   0.31046   0.41316   1.000
    C77     C    0.17712   0.32476   0.35468   1.000
    C78     C    0.20543   0.35467   0.28214   1.000
    C79     C    0.31540   0.36811   0.26876   1.000
    C80     C    0.39605   0.35314   0.32655   1.000
    C81     C    0.11912   0.37040   0.21991   1.000
    C82     C    0.01813   0.18882   0.09688   1.000
    C83     C    0.98872   0.22118   0.97749   1.000
    C84     C    0.31266   0.02954   0.11189   1.000
    C85     C    0.26872   0.93504   0.01720   1.000
    C86     C    0.06585   0.95667   0.24611   1.000
    C87     C    0.06115   0.91868   0.32489   1.000
    C88     C    0.00871   0.83079   0.33933   1.000
    C89     C    0.00671   0.79488   0.41317   1.000
    C90     C    0.05846   0.84653   0.47365   1.000
    C91     C    0.10981   0.93509   0.46061   1.000
    C92     C    0.11062   0.97051   0.38653   1.000
    C93     C    0.13412   0.82570   0.60131   1.000
    C94     C    0.24311   0.81030   0.58682   1.000
    C95     C    0.32292   0.82465   0.64500   1.000
    C96     C    0.29459   0.85464   0.71782   1.000
    C97     C    0.18462   0.86819   0.73118   1.000
    C98     C    0.10398   0.85318   0.67340   1.000
    C99     C    0.38089   0.87039   0.78005   1.000
    C100    C    0.51821   0.31120   0.09685   1.000
    C101    C    0.48886   0.27881   0.97746   1.000
    C102    C    0.81265   0.47050   0.11183   1.000
    C103    C    0.76869   0.56524   0.01728   1.000
    C104    C    0.56576   0.54326   0.24611   1.000
    C105    C    0.56100   0.58123   0.32491   1.000
    C106    C    0.50838   0.66907   0.33938   1.000
    C107    C    0.50636   0.70498   0.41322   1.000
    C108    C    0.55831   0.65341   0.47368   1.000
    C109    C    0.60979   0.56487   0.46061   1.000
    C110    C    0.61061   0.52944   0.38653   1.000
    C111    C    0.63403   0.67428   0.60132   1.000
    C112    C    0.74302   0.68959   0.58682   1.000
    C113    C    0.82284   0.67523   0.64529   1.000
    C114    C    0.79452   0.64538   0.71784   1.000
    C115    C    0.68456   0.63188   0.73120   1.000
    C116    C    0.60390   0.64690   0.67343   1.000
    C117    C    0.88084   0.62963   0.78007   1.000
    C118    C    0.98183   0.81121   0.90310   1.000
    C119    C    0.01124   0.77885   0.02249   1.000
    C120    C    0.68730   0.97049   0.88808   1.000
    C121    C    0.73124   0.06498   0.98277   1.000
    C122    C    0.93410   0.04335   0.75387   1.000
    C123    C    0.93880   0.08135   0.67500   1.000
    C124    C    0.99128   0.16923   0.66065   1.000
    C125    C    0.99328   0.20514   0.58681   1.000
    C126    C    0.94149   0.15349   0.52632   1.000
    C127    C    0.89014   0.06493   0.53937   1.000
    C128    C    0.88933   0.02952   0.61345   1.000
    C129    C    0.86584   0.17433   0.39866   1.000
    C130    C    0.75684   0.18971   0.41316   1.000
    C131    C    0.67703   0.17540   0.35468   1.000
    C132    C    0.70536   0.14538   0.28216   1.000
    C133    C    0.81534   0.13186   0.26879   1.000
    C134    C    0.89598   0.14683   0.32650   1.000
    C135    C    0.61906   0.12963   0.21993   1.000
    C136    C    0.27310   0.47852   0.92190   1.000
    C137    C    0.09683   0.51561   0.92687   1.000
    C138    C    0.12711   0.45471   0.98822   1.000
    C139    C    0.19272   0.58766   0.82708   1.000
    C140    C    0.51220   0.62404   0.01597   1.000
    C141    C    0.49249   0.76417   0.95278   1.000
    C142    C    0.49388   0.60409   0.93828   1.000
    C143    C    0.53182   0.76995   0.08929   1.000
    C144    C    0.22688   0.97866   0.07807   1.000
    C145    C    0.40313   0.01567   0.07310   1.000
    C146    C    0.37285   0.95495   0.01169   1.000
    C147    C    0.30723   0.08754   0.17305   1.000
    C148    C    0.98756   0.12401   0.98404   1.000
    C149    C    0.00740   0.26416   0.04723   1.000
    C150    C    0.00594   0.10408   0.06173   1.000
    C151    C    0.96798   0.26992   0.91073   1.000
    C152    C    0.72686   0.52150   0.07807   1.000
    C153    C    0.90312   0.48442   0.07310   1.000
    C154    C    0.87284   0.54531   0.01176   1.000
    C155    C    0.80723   0.41236   0.17290   1.000
    C156    C    0.48775   0.37599   0.98400   1.000
    C157    C    0.50746   0.23585   0.04720   1.000
    C158    C    0.50608   0.39593   0.06170   1.000
    C159    C    0.46813   0.23008   0.91069   1.000
    C160    C    0.77307   0.02136   0.92190   1.000
    C161    C    0.59682   0.98435   0.92685   1.000
    C162    C    0.62711   0.04507   0.98829   1.000
    C163    C    0.69272   0.91248   0.82693   1.000
    C164    C    0.01239   0.87601   0.01594   1.000
    C165    C    0.99255   0.73587   0.95275   1.000
    C166    C    0.99401   0.89594   0.93825   1.000
    C167    C    0.03198   0.73010   0.08920   1.000
    C168    C    0.44921   0.30816   0.45420   1.000
    C169    C    0.02168   0.34994   0.22983   1.000
    C170    C    0.15231   0.40403   0.15607   1.000
    C171    C    0.39822   0.54066   0.76630   1.000
    C172    C    0.46817   0.40041   0.81008   1.000
    C173    C    0.05084   0.80813   0.54568   1.000
    C174    C    0.47835   0.84994   0.77010   1.000
    C175    C    0.34766   0.90406   0.84389   1.000
    C176    C    0.10175   0.04053   0.23362   1.000
    C177    C    0.03185   0.90038   0.18987   1.000
    C178    C    0.55074   0.69187   0.54570   1.000
    C179    C    0.97827   0.65008   0.77014   1.000
    C180    C    0.84764   0.59598   0.84391   1.000
    C181    C    0.60174   0.45937   0.23360   1.000
    C182    C    0.53179   0.59962   0.18900   1.000
    C183    C    0.94911   0.19189   0.45429   1.000
    C184    C    0.52160   0.15008   0.22984   1.000
    C185    C    0.65229   0.09597   0.15608   1.000
    C186    C    0.89821   0.95949   0.76635   1.000
    C187    C    0.96810   0.09965   0.81011   1.000
    O188    O    0.32078   0.94500   0.01445   1.000
    O189    O    0.38799   0.98531   0.04240   1.000
    O190    O    0.41758   0.93000   0.96895   1.000
    O191    O    0.82077   0.55528   0.01452   1.000
    O192    O    0.88798   0.51486   0.04243   1.000
    O193    O    0.91756   0.57017   0.96898   1.000
    O194    O    0.01182   0.82743   0.01921   1.000
    O195    O    0.03875   0.92551   0.05624   1.000
    O196    O    0.00320   0.88598   0.97710   1.000
    O197    O    0.51165   0.67263   0.01925   1.000
    O198    O    0.53864   0.57454   0.05624   1.000
    O199    O    0.50304   0.61406   0.97713   1.000
    O200    O    0.24780   0.95685   0.04764   1.000
    O201    O    0.24568   0.91229   0.99689   1.000
    O202    O    0.74777   0.54337   0.04768   1.000
    O203    O    0.74565   0.58804   0.99699   1.000
    O204    O    0.02161   0.75447   0.05585   1.000
    O205    O    0.00190   0.75736   0.98762   1.000
    O206    O    0.52146   0.74558   0.05590   1.000
    O207    O    0.50179   0.74269   0.98765   1.000
    O208    O    0.25431   0.41198   0.00298   1.000
    O209    O    0.75428   0.08773   0.00309   1.000
    O210    O    0.52256   0.16542   0.06048   1.000
    O211    O    0.51284   0.27352   0.07203   1.000
    O212    O    0.49816   0.25733   0.01233   1.000
    O213    O    0.02254   0.33458   0.06049   1.000
    O214    O    0.01276   0.22649   0.07206   1.000
    O215    O    0.99806   0.24267   0.01236   1.000
    O216    O    0.53558   0.46049   0.07910   1.000
    O217    O    0.51214   0.35357   0.07928   1.000
    O218    O    0.49691   0.38596   0.02285   1.000
    O219    O    0.03552   0.03954   0.07913   1.000
    O220    O    0.01203   0.14645   0.07931   1.000
    O221    O    0.99675   0.11404   0.02288   1.000
    O222    O    0.97041   0.44471   0.07342   1.000
    O223    O    0.85789   0.47746   0.09247   1.000
    O224    O    0.47039   0.05533   0.07343   1.000
    O225    O    0.35789   0.02260   0.09250   1.000
    O226    O    0.09500   0.40452   0.11490   1.000
    O227    O    0.08240   0.42986   0.03098   1.000
    O228    O    0.59497   0.09547   0.11492   1.000
    O229    O    0.58238   0.07003   0.03103   1.000
    O230    O    0.14599   0.97683   0.08730   1.000
    O231    O    0.26977   0.00410   0.09498   1.000
    O232    O    0.64597   0.52327   0.08729   1.000
    O233    O    0.76975   0.49600   0.09495   1.000
    O234    O    0.01679   0.69585   0.09040   1.000
    O235    O    0.02984   0.75048   0.11353   1.000
    O236    O    0.51666   0.80422   0.09046   1.000
    O237    O    0.52967   0.74958   0.11360   1.000
    O238    O    0.54844   0.56233   0.14275   1.000
    O239    O    0.04848   0.93769   0.14320   1.000
    O240    O    0.52630   0.30727   0.12738   1.000
    O241    O    0.02623   0.19275   0.12742   1.000
    O242    O    0.80994   0.44143   0.14237   1.000
    O243    O    0.30995   0.05854   0.14247   1.000
    O244    O    0.13571   0.38722   0.18799   1.000
    O245    O    0.63568   0.11280   0.18801   1.000
    O246    O    0.84345   0.40010   0.18570   1.000
    O247    O    0.77387   0.41634   0.18874   1.000
    O248    O    0.34344   0.09981   0.18587   1.000
    O249    O    0.27388   0.08356   0.18888   1.000
    O250    O    0.54878   0.57144   0.21756   1.000
    O251    O    0.04885   0.92852   0.21799   1.000
    O252    O    0.32620   0.37955   0.24057   1.000
    O253    O    0.82614   0.12037   0.24061   1.000
    O254    O    0.07040   0.36017   0.22487   1.000
    O255    O    0.16227   0.36253   0.25102   1.000
    O256    O    0.57033   0.13986   0.22489   1.000
    O257    O    0.66221   0.13750   0.25105   1.000
    O258    O    0.58375   0.50132   0.23986   1.000
    O259    O    0.08380   0.99860   0.23987   1.000
    O260    O    0.06350   0.93767   0.28550   1.000
    O261    O    0.56338   0.56224   0.28551   1.000
    O262    O    0.26041   0.36139   0.27545   1.000
    O263    O    0.35572   0.36062   0.29766   1.000
    O264    O    0.76035   0.13862   0.27548   1.000
    O265    O    0.85566   0.13934   0.29764   1.000
    O266    O    0.19128   0.33971   0.31841   1.000
    O267    O    0.69120   0.16039   0.31842   1.000
    O268    O    0.98898   0.81081   0.31560   1.000
    O269    O    0.48859   0.68902   0.31565   1.000
    O270    O    0.43873   0.35818   0.32138   1.000
    O271    O    0.93865   0.14175   0.32137   1.000
    O272    O    0.03493   0.87473   0.33211   1.000
    O273    O    0.08589   0.94459   0.35571   1.000
    O274    O    0.53469   0.62515   0.33215   1.000
    O275    O    0.58581   0.55533   0.35572   1.000
    O276    O    0.88091   0.16058   0.36258   1.000
    O277    O    0.38099   0.33944   0.36260   1.000
    O278    O    0.00771   0.81284   0.37625   1.000
    O279    O    0.50737   0.68703   0.37630   1.000
    O280    O    0.13447   0.31866   0.35955   1.000
    O281    O    0.21703   0.31761   0.38392   1.000
    O282    O    0.63439   0.18153   0.35955   1.000
    O283    O    0.71694   0.18256   0.38392   1.000
    O284    O    0.63020   0.49495   0.38100   1.000
    O285    O    0.13014   0.00499   0.38101   1.000
    O286    O    0.61020   0.54716   0.42357   1.000
    O287    O    0.11021   0.95280   0.42357   1.000
    O288    O    0.31143   0.31809   0.40591   1.000
    O289    O    0.40757   0.31694   0.42642   1.000
    O290    O    0.81134   0.18202   0.40591   1.000
    O291    O    0.90747   0.18311   0.42647   1.000
    O292    O    0.24619   0.29897   0.44140   1.000
    O293    O    0.74609   0.20124   0.44139   1.000
    O294    O    0.98666   0.76075   0.41908   1.000
    O295    O    0.03259   0.82071   0.44341   1.000
    O296    O    0.48626   0.73911   0.41914   1.000
    O297    O    0.53234   0.67920   0.44345   1.000
    O298    O    0.44543   0.32739   0.49025   1.000
    O299    O    0.94530   0.17269   0.49030   1.000
    O300    O    0.58405   0.60914   0.46714   1.000
    O301    O    0.62892   0.54464   0.48443   1.000
    O302    O    0.08413   0.89081   0.46713   1.000
    O303    O    0.12886   0.95534   0.48440   1.000
    O304    O    0.05465   0.82733   0.50967   1.000
    O305    O    0.55453   0.67264   0.50969   1.000
    O306    O    0.37104   0.45538   0.51550   1.000
    O307    O    0.87109   0.04468   0.51554   1.000
    O308    O    0.41590   0.39089   0.53280   1.000
    O309    O    0.46762   0.32083   0.55653   1.000
    O310    O    0.91582   0.10921   0.53285   1.000
    O311    O    0.96739   0.17931   0.55657   1.000
    O312    O    0.75376   0.70106   0.55858   1.000
    O313    O    0.25386   0.79878   0.55859   1.000
    O314    O    0.38976   0.45287   0.57638   1.000
    O315    O    0.88974   0.04723   0.57641   1.000
    O316    O    0.09248   0.81692   0.57349   1.000
    O317    O    0.59238   0.68307   0.57351   1.000
    O318    O    0.51369   0.26091   0.58084   1.000
    O319    O    0.01331   0.23928   0.58090   1.000
    O320    O    0.49259   0.31300   0.62368   1.000
    O321    O    0.99228   0.18719   0.62373   1.000
    O322    O    0.68852   0.68193   0.59407   1.000
    O323    O    0.78293   0.68241   0.61606   1.000
    O324    O    0.18862   0.81800   0.59406   1.000
    O325    O    0.28302   0.81748   0.61591   1.000
    O326    O    0.11905   0.83944   0.63736   1.000
    O327    O    0.61897   0.66059   0.63738   1.000
    O328    O    0.86981   0.99504   0.61897   1.000
    O329    O    0.91407   0.05543   0.64423   1.000
    O330    O    0.36977   0.50508   0.61898   1.000
    O331    O    0.41415   0.44469   0.64426   1.000
    O332    O    0.86548   0.68134   0.64039   1.000
    O333    O    0.36557   0.81851   0.64027   1.000
    O334    O    0.30876   0.83964   0.68141   1.000
    O335    O    0.80868   0.66030   0.68157   1.000
    O336    O    0.46527   0.37488   0.66784   1.000
    O337    O    0.51137   0.31100   0.68432   1.000
    O338    O    0.96504   0.12529   0.66783   1.000
    O339    O    0.01099   0.18921   0.68439   1.000
    O340    O    0.06130   0.85826   0.67857   1.000
    O341    O    0.14430   0.86069   0.70229   1.000
    O342    O    0.56123   0.64186   0.67861   1.000
    O343    O    0.64423   0.63939   0.70231   1.000
    O344    O    0.93645   0.06235   0.71444   1.000
    O345    O    0.43656   0.43778   0.71447   1.000
    O346    O    0.23961   0.86141   0.72450   1.000
    O347    O    0.33774   0.86251   0.74894   1.000
    O348    O    0.73954   0.63863   0.72452   1.000
    O349    O    0.83768   0.63751   0.74896   1.000
    O350    O    0.17381   0.87967   0.75937   1.000
    O351    O    0.67376   0.62045   0.75939   1.000
    O352    O    0.41620   0.49871   0.76008   1.000
    O353    O    0.45117   0.42858   0.78197   1.000
    O354    O    0.91615   0.00142   0.76011   1.000
    O355    O    0.95110   0.07150   0.78199   1.000
    O356    O    0.42962   0.86017   0.77508   1.000
    O357    O    0.92955   0.63986   0.77511   1.000
    O358    O    0.36428   0.88723   0.81197   1.000
    O359    O    0.86424   0.61281   0.81199   1.000
    O360    O    0.72608   0.91646   0.81110   1.000
    O361    O    0.22608   0.58368   0.81125   1.000
    O362    O    0.65651   0.90022   0.81412   1.000
    O363    O    0.15650   0.59992   0.81426   1.000
    O364    O    0.45152   0.43769   0.85676   1.000
    O365    O    0.95147   0.06234   0.85678   1.000
    O366    O    0.69001   0.94148   0.85751   1.000
    O367    O    0.19001   0.55859   0.85761   1.000
    O368    O    0.97372   0.80728   0.87257   1.000
    O369    O    0.47365   0.69275   0.87260   1.000
    O370    O    0.40498   0.90455   0.88505   1.000
    O371    O    0.90496   0.59550   0.88506   1.000
    O372    O    0.47028   0.25044   0.88638   1.000
    O373    O    0.97012   0.24955   0.88642   1.000
    O374    O    0.73019   0.99592   0.90499   1.000
    O375    O    0.64206   0.97742   0.90747   1.000
    O376    O    0.23020   0.50402   0.90502   1.000
    O377    O    0.14207   0.52257   0.90751   1.000
    O378    O    0.98792   0.85358   0.92068   1.000
    O379    O    0.98719   0.77354   0.92793   1.000
    O380    O    0.48781   0.64646   0.92071   1.000
    O381    O    0.48712   0.72650   0.92796   1.000
    O382    O    0.85396   0.02319   0.91267   1.000
    O383    O    0.96443   0.96049   0.92085   1.000
    O384    O    0.96120   0.07452   0.94374   1.000
    O385    O    0.35398   0.47675   0.91268   1.000
    O386    O    0.46437   0.53953   0.92087   1.000
    O387    O    0.46131   0.42548   0.94373   1.000
    O388    O    0.48329   0.19580   0.90950   1.000
    O389    O    0.98317   0.30417   0.90956   1.000
    O390    O    0.47849   0.25444   0.94408   1.000
    O391    O    0.97835   0.24555   0.94411   1.000
    O392    O    0.75215   0.04317   0.95233   1.000
    O393    O    0.25218   0.45665   0.95230   1.000
    O394    O    0.02955   0.55532   0.92653   1.000
    O395    O    0.97741   0.66544   0.93947   1.000
    O396    O    0.52957   0.94470   0.92653   1.000
    O397    O    0.47740   0.83461   0.93950   1.000
    O398    O    0.61197   0.01471   0.95757   1.000
    O399    O    0.11197   0.48516   0.95754   1.000
    O400    O    0.48830   0.32740   0.98073   1.000
    O401    O    0.98814   0.17259   0.98076   1.000
    O402    O    0.17918   0.44474   0.98546   1.000
    O403    O    0.67917   0.05503   0.98553   1.000
loop_
    _geom_bond_atom_site_label_1
    _geom_bond_atom_site_label_2
    _geom_bond_distance
    _geom_bond_site_symmetry_2
    _ccdc_geom_bond_type
    C146   O188      0.66141      .   S
    C85    O188      0.66141      .   S
    C146   O189      0.69909      .   S
    C145   O189      0.69909  1_545   S
    C146   O190      1.01867  1_554   S
    C1     O190      1.01867      .   S
    C154   O191      0.66143      .   S
    C103   O191      0.66143      .   S
    C154   O192      0.69933      .   S
    C153   O192      0.69933      .   S
    C154   O193      1.01888  1_554   S
    C7     O193      1.01888      .   S
    C164   O194      0.67268      .   S
    C119   O194      0.67268      .   S
    C164   O195      1.02194      .   S
    C2     O195      1.02194      .   S
    C164   O196      0.69848  1_554   S
    C166   O196      0.69848  1_655   S
    C140   O197      0.67269      .   S
    C65    O197      0.67269      .   S
    C140   O198      1.02181      .   S
    C4     O198      1.02181      .   S
    C140   O199      0.69845  1_554   S
    C142   O199      0.69845      .   S
    C85    O200      0.67819      .   S
    C144   O200      0.67819      .   S
    C85    O201      0.54229  1_554   S
    C23    O201      0.54229      .   S
    C103   O202      0.67818      .   S
    C152   O202      0.67818      .   S
    C103   O203      0.54225  1_554   S
    C37    O203      0.54225      .   S
    C119   O204      0.68077      .   S
    C167   O204      0.68077      .   S
    C119   O205      0.68384  1_554   S
    C165   O205      0.68384  1_655   S
    C65    O206      0.68117      .   S
    C143   O206      0.68117      .   S
    C65    O207      0.68375  1_554   S
    C141   O207      0.68375      .   S
    C9     O208      0.54219      .   S
    C67    O208      0.54219  1_556   S
    C51    O209      0.54229      .   S
    C121   O209      0.54229  1_556   S
    C157   O210      1.01358      .   S
    C5     O210      1.01358      .   S
    C157   O211      0.67897      .   S
    C100   O211      0.67897      .   S
    C157   O212      0.68375      .   S
    C101   O212      0.68375  1_556   S
    C149   O213      1.01357      .   S
    C3     O213      1.01357      .   S
    C149   O214      0.67896      .   S
    C82    O214      0.67896      .   S
    C149   O215      0.68384  1_455   S
    C83    O215      0.68384  1_556   S
    C158   O216      1.00258      .   S
    C4     O216      1.00258      .   S
    C158   O217      0.66301      .   S
    C100   O217      0.66301      .   S
    C158   O218      0.69854      .   S
    C156   O218      0.69854  1_556   S
    C150   O219      1.00248      .   S
    C2     O219      1.00248  1_565   S
    C150   O220      0.66303      .   S
    C82    O220      0.66303      .   S
    C150   O221      0.69847  1_455   S
    C148   O221      0.69847  1_556   S
    C153   O222      0.99371      .   S
    C3     O222      0.99371  1_455   S
    C153   O223      0.67811      .   S
    C102   O223      0.67811      .   S
    C145   O224      0.99356      .   S
    C5     O224      0.99356      .   S
    C145   O225      0.67823      .   S
    C84    O225      0.67823      .   S
    C3     O226      0.97944      .   S
    C170   O226      0.97944      .   S
    C3     O227      1.01860      .   S
    C138   O227      1.01860  1_556   S
    C5     O228      0.97946      .   S
    C185   O228      0.97946      .   S
    C5     O229      1.01860      .   S
    C162   O229      1.01860  1_556   S
    C144   O230      1.02085      .   S
    C2     O230      1.02085      .   S
    C144   O231      0.68688  1_565   S
    C84    O231      0.68688      .   S
    C152   O232      1.02075      .   S
    C4     O232      1.02075      .   S
    C152   O233      0.68696      .   S
    C102   O233      0.68696      .   S
    C167   O234      0.50922      .   S
    C63    O234      0.50922      .   S
    C167   O235      0.51364      .   S
    C62    O235      0.51364      .   S
    C143   O236      0.50919      .   S
    C21    O236      0.50919      .   S
    C143   O237      0.51328      .   S
    C20    O237      0.51328      .   S
    C4     O238      0.99362      .   S
    C182   O238      0.99362      .   S
    C2     O239      1.00010      .   S
    C177   O239      1.00010      .   S
    C100   O240      0.54224      .   S
    C36    O240      0.54224      .   S
    C82    O241      0.54226      .   S
    C22    O241      0.54226      .   S
    C102   O242      0.67225      .   S
    C155   O242      0.67225      .   S
    C84    O243      0.67224      .   S
    C147   O243      0.67224      .   S
    C170   O244      0.65154      .   S
    C81    O244      0.65154      .   S
    C185   O245      0.65163      .   S
    C135   O245      0.65163      .   S
    C155   O246      0.51590      .   S
    C47    O246      0.51590      .   S
    C155   O247      0.51366      .   S
    C46    O247      0.51366      .   S
    C147   O248      0.51604      .   S
    C33    O248      0.51604      .   S
    C147   O249      0.51363      .   S
    C32    O249      0.51363      .   S
    C182   O250      0.65843      .   S
    C104   O250      0.65843      .   S
    C177   O251      0.65263      .   S
    C86    O251      0.65263      .   S
    C16    O252      0.54419      .   S
    C79    O252      0.54419      .   S
    C58    O253      0.54415      .   S
    C133   O253      0.54415      .   S
    C81    O254      0.62854      .   S
    C169   O254      0.62854      .   S
    C81    O255      0.74683      .   S
    C78    O255      0.74683      .   S
    C135   O256      0.62854      .   S
    C184   O256      0.62854      .   S
    C135   O257      0.74684      .   S
    C132   O257      0.74684      .   S
    C181   O258      0.63160      .   S
    C104   O258      0.63160      .   S
    C176   O259      0.63141  1_545   S
    C86    O259      0.63141      .   S
    C86    O260      0.74223      .   S
    C87    O260      0.74223      .   S
    C104   O261      0.74228      .   S
    C105   O261      0.74228      .   S
    C79    O262      0.70157      .   S
    C78    O262      0.70157      .   S
    C79    O263      0.69595      .   S
    C80    O263      0.69595      .   S
    C133   O264      0.70158      .   S
    C132   O264      0.70158      .   S
    C133   O265      0.69548      .   S
    C134   O265      0.69548      .   S
    C78    O266      0.70207      .   S
    C77    O266      0.70207      .   S
    C132   O267      0.70206      .   S
    C131   O267      0.70206      .   S
    C24    O268      0.54450      .   S
    C88    O268      0.54450  1_455   S
    C38    O269      0.54446      .   S
    C106   O269      0.54446      .   S
    C17    O270      0.54413      .   S
    C80    O270      0.54413      .   S
    C59    O271      0.54399      .   S
    C134   O271      0.54399      .   S
    C87    O272      0.70238      .   S
    C88    O272      0.70238      .   S
    C87    O273      0.70253      .   S
    C92    O273      0.70253      .   S
    C105   O274      0.70238      .   S
    C106   O274      0.70238      .   S
    C105   O275      0.70252      .   S
    C110   O275      0.70252      .   S
    C134   O276      0.69774      .   S
    C129   O276      0.69774      .   S
    C80    O277      0.69714      .   S
    C75    O277      0.69714      .   S
    C88    O278      0.69514      .   S
    C89    O278      0.69514      .   S
    C106   O279      0.69510      .   S
    C107   O279      0.69510      .   S
    C77    O280      0.54465      .   S
    C15    O280      0.54465      .   S
    C77    O281      0.69603      .   S
    C76    O281      0.69603      .   S
    C131   O282      0.54463      .   S
    C57    O282      0.54463      .   S
    C131   O283      0.69605      .   S
    C130   O283      0.69605      .   S
    C41    O284      0.54479      .   S
    C110   O284      0.54479      .   S
    C27    O285      0.54462      .   S
    C92    O285      0.54462  1_565   S
    C110   O286      0.69536      .   S
    C109   O286      0.69536      .   S
    C92    O287      0.69539      .   S
    C91    O287      0.69539      .   S
    C75    O288      0.69983      .   S
    C76    O288      0.69983      .   S
    C75    O289      0.69675      .   S
    C168   O289      0.69675      .   S
    C129   O290      0.69985      .   S
    C130   O290      0.69985      .   S
    C129   O291      0.69719      .   S
    C183   O291      0.69719      .   S
    C76    O292      0.54495      .   S
    C14    O292      0.54495      .   S
    C130   O293      0.54491      .   S
    C56    O293      0.54491      .   S
    C89    O294      0.54493  1_455   S
    C25    O294      0.54493      .   S
    C89    O295      0.69999      .   S
    C90    O295      0.69999      .   S
    C107   O296      0.54483      .   S
    C39    O296      0.54483      .   S
    C107   O297      0.70003      .   S
    C108   O297      0.70003      .   S
    C168   O298      0.69083      .   S
    C72    O298      0.69083      .   S
    C183   O299      0.69022      .   S
    C126   O299      0.69022      .   S
    C109   O300      0.70080      .   S
    C108   O300      0.70080      .   S
    C109   O301      0.54437      .   S
    C40    O301      0.54437      .   S
    C91    O302      0.70078      .   S
    C90    O302      0.70078      .   S
    C91    O303      0.54392      .   S
    C26    O303      0.54392      .   S
    C90    O304      0.69022      .   S
    C173   O304      0.69022      .   S
    C108   O305      0.69018      .   S
    C178   O305      0.69018      .   S
    C12    O306      0.54410      .   S
    C73    O306      0.54410      .   S
    C54    O307      0.54438      .   S
    C127   O307      0.54438      .   S
    C72    O308      0.70068      .   S
    C73    O308      0.70068      .   S
    C72    O309      0.70002      .   S
    C71    O309      0.70002      .   S
    C126   O310      0.70079      .   S
    C127   O310      0.70079      .   S
    C126   O311      0.70015      .   S
    C125   O311      0.70015      .   S
    C42    O312      0.54491      .   S
    C112   O312      0.54491      .   S
    C28    O313      0.54488      .   S
    C94    O313      0.54488      .   S
    C73    O314      0.69595      .   S
    C74    O314      0.69595      .   S
    C127   O315      0.69539      .   S
    C128   O315      0.69539      .   S
    C173   O316      0.69721      .   S
    C93    O316      0.69721      .   S
    C178   O317      0.69718      .   S
    C111   O317      0.69718      .   S
    C11    O318      0.54483      .   S
    C71    O318      0.54483      .   S
    C53    O319      0.54483      .   S
    C125   O319      0.54483  1_655   S
    C71    O320      0.69512      .   S
    C70    O320      0.69512      .   S
    C125   O321      0.69514      .   S
    C124   O321      0.69514      .   S
    C112   O322      0.69983      .   S
    C111   O322      0.69983      .   S
    C112   O323      0.69605      .   S
    C113   O323      0.69605      .   S
    C94    O324      0.69984      .   S
    C93    O324      0.69984      .   S
    C94    O325      0.69428      .   S
    C95    O325      0.69428      .   S
    C93    O326      0.69712      .   S
    C98    O326      0.69712      .   S
    C111   O327      0.69715      .   S
    C116   O327      0.69715      .   S
    C128   O328      0.54460  1_545   S
    C55    O328      0.54460      .   S
    C128   O329      0.70194      .   S
    C123   O329      0.70194      .   S
    C74    O330      0.54479      .   S
    C13    O330      0.54479      .   S
    C74    O331      0.70251      .   S
    C69    O331      0.70251      .   S
    C43    O332      0.54474      .   S
    C113   O332      0.54474      .   S
    C29    O333      0.54409      .   S
    C95    O333      0.54409      .   S
    C95    O334      0.70442      .   S
    C96    O334      0.70442      .   S
    C113   O335      0.70203      .   S
    C114   O335      0.70203      .   S
    C70    O336      0.70238      .   S
    C69    O336      0.70238      .   S
    C70    O337      0.54439      .   S
    C10    O337      0.54439      .   S
    C124   O338      0.70231      .   S
    C123   O338      0.70231      .   S
    C124   O339      0.54441  1_655   S
    C52    O339      0.54441      .   S
    C98    O340      0.54413      .   S
    C31    O340      0.54413      .   S
    C98    O341      0.69594      .   S
    C97    O341      0.69594      .   S
    C116   O342      0.54413      .   S
    C45    O342      0.54413      .   S
    C116   O343      0.69590      .   S
    C115   O343      0.69590      .   S
    C123   O344      0.74297      .   S
    C122   O344      0.74297      .   S
    C69    O345      0.74220      .   S
    C68    O345      0.74220      .   S
    C96    O346      0.70157      .   S
    C97    O346      0.70157      .   S
    C96    O347      0.74685      .   S
    C99    O347      0.74685      .   S
    C114   O348      0.70155      .   S
    C115   O348      0.70155      .   S
    C114   O349      0.74685      .   S
    C117   O349      0.74685      .   S
    C97    O350      0.54419      .   S
    C30    O350      0.54419      .   S
    C115   O351      0.54420      .   S
    C44    O351      0.54420      .   S
    C68    O352      0.63147      .   S
    C171   O352      0.63147      .   S
    C68    O353      0.65265      .   S
    C172   O353      0.65265      .   S
    C122   O354      0.63139      .   S
    C186   O354      0.63139  1_565   S
    C122   O355      0.65262      .   S
    C187   O355      0.65262      .   S
    C174   O356      0.62860      .   S
    C99    O356      0.62860      .   S
    C179   O357      0.62854      .   S
    C117   O357      0.62854      .   S
    C99    O358      0.65157      .   S
    C175   O358      0.65157      .   S
    C117   O359      0.65157      .   S
    C180   O359      0.65157      .   S
    C60    O360      0.51368      .   S
    C163   O360      0.51368      .   S
    C18    O361      0.51366      .   S
    C139   O361      0.51366      .   S
    C61    O362      0.51604      .   S
    C163   O362      0.51604      .   S
    C19    O363      0.51607      .   S
    C139   O363      0.51607      .   S
    C172   O364      0.99997      .   S
    C0     O364      0.99997      .   S
    C187   O365      1.00003      .   S
    C6     O365      1.00003      .   S
    C163   O366      0.67216      .   S
    C120   O366      0.67216      .   S
    C139   O367      0.67218      .   S
    C66    O367      0.67218      .   S
    C50    O368      0.54226      .   S
    C118   O368      0.54226      .   S
    C8     O369      0.54224      .   S
    C64    O369      0.54224      .   S
    C175   O370      0.97946      .   S
    C1     O370      0.97946      .   S
    C180   O371      0.97919      .   S
    C7     O371      0.97919      .   S
    C48    O372      0.51328      .   S
    C159   O372      0.51328      .   S
    C34    O373      0.51327      .   S
    C151   O373      0.51327      .   S
    C120   O374      0.68688      .   S
    C160   O374      0.68688  1_545   S
    C120   O375      0.67814      .   S
    C161   O375      0.67814      .   S
    C66    O376      0.68696      .   S
    C136   O376      0.68696      .   S
    C66    O377      0.67811      .   S
    C137   O377      0.67811      .   S
    C118   O378      0.66304      .   S
    C166   O378      0.66304      .   S
    C118   O379      0.67897      .   S
    C165   O379      0.67897      .   S
    C64    O380      0.66302      .   S
    C142   O380      0.66302      .   S
    C64    O381      0.67896      .   S
    C141   O381      0.67896      .   S
    C6     O382      1.02084      .   S
    C160   O382      1.02084      .   S
    C6     O383      1.00250  1_545   S
    C166   O383      1.00250      .   S
    C6     O384      1.02200      .   S
    C148   O384      1.02200      .   S
    C0     O385      1.02079      .   S
    C136   O385      1.02079      .   S
    C0     O386      1.00266      .   S
    C142   O386      1.00266      .   S
    C0     O387      1.02192      .   S
    C156   O387      1.02192      .   S
    C49    O388      0.50922      .   S
    C159   O388      0.50922      .   S
    C35    O389      0.50919      .   S
    C151   O389      0.50919      .   S
    C159   O390      0.68117      .   S
    C101   O390      0.68117      .   S
    C151   O391      0.68114      .   S
    C83    O391      0.68114      .   S
    C160   O392      0.67819      .   S
    C121   O392      0.67819      .   S
    C136   O393      0.67825      .   S
    C67    O393      0.67825      .   S
    C7     O394      0.99370  1_655   S
    C137   O394      0.99370      .   S
    C7     O395      1.01363      .   S
    C165   O395      1.01363      .   S
    C1     O396      0.99357      .   S
    C161   O396      0.99357      .   S
    C1     O397      1.01360      .   S
    C141   O397      1.01360      .   S
    C161   O398      0.69928  1_565   S
    C162   O398      0.69928      .   S
    C137   O399      0.69940      .   S
    C138   O399      0.69940      .   S
    C101   O400      0.67268      .   S
    C156   O400      0.67268      .   S
    C83    O401      0.67269      .   S
    C148   O401      0.67269      .   S
    C67    O402      0.66143      .   S
    C138   O402      0.66143      .   S
    C121   O403      0.66142      .   S
    C162   O403      0.66142      .   S
