# CIF file generated by openbabel 2.4.90, see http://openbabel.sf.net
data_I
_chemical_name_common ''
_cell_length_a 12.333
_cell_length_b 13.793
_cell_length_c 17.568
_cell_angle_alpha 90.008
_cell_angle_beta 93.554
_cell_angle_gamma 89.971
_space_group_name_H-M_alt 'P 1'
_space_group_name_Hall 'P 1'
loop_
    _symmetry_equiv_pos_as_xyz
    x,y,z
loop_
    _atom_site_label
    _atom_site_type_symbol
    _atom_site_fract_x
    _atom_site_fract_y
    _atom_site_fract_z
    _atom_site_occupancy
    Zr0     Zr   0.43487   0.47498   0.90345   1.000
    Zr1     Zr   0.46231   0.90504   0.92621   1.000
    Zr2     Zr   0.06511   0.97500   0.09653   1.000
    Zr3     Zr   0.03769   0.40500   0.07374   1.000
    Zr4     Zr   0.56508   0.52505   0.09650   1.000
    Zr5     Zr   0.53765   0.09498   0.07376   1.000
    Zr6     Zr   0.93484   0.02503   0.90344   1.000
    Zr7     Zr   0.96227   0.59502   0.92620   1.000
    N8      N    0.34510   0.37228   0.47398   1.000
    O9      O    0.22005   0.38840   0.29444   1.000
    O10     O    0.39831   0.40499   0.66537   1.000
    N11     N    0.99785   0.21516   0.00073   1.000
    O12     O    0.97953   0.14484   0.97223   1.000
    O13     O    0.01020   0.27487   0.03061   1.000
    O14     O    0.01669   0.12735   0.03993   1.000
    N15     N    0.80380   0.49093   0.09386   1.000
    O16     O    0.72488   0.50710   0.09057   1.000
    O17     O    0.88710   0.46782   0.08364   1.000
    O18     O    0.86068   0.53055   0.03142   1.000
    N19     N    0.49797   0.28484   0.00069   1.000
    O20     O    0.47964   0.35516   0.97221   1.000
    O21     O    0.51026   0.22513   0.03058   1.000
    O22     O    0.51678   0.37266   0.03989   1.000
    N23     N    0.69615   0.99085   0.90609   1.000
    O24     O    0.77505   0.00702   0.90938   1.000
    O25     O    0.61286   0.96777   0.91631   1.000
    O26     O    0.63926   0.03044   0.96856   1.000
    N27     N    0.15496   0.87222   0.52595   1.000
    O28     O    0.27997   0.88838   0.70550   1.000
    O29     O    0.10172   0.90495   0.33458   1.000
    N30     N    0.30381   0.00918   0.09388   1.000
    O31     O    0.22490   0.99300   0.09059   1.000
    O32     O    0.38710   0.03225   0.08366   1.000
    O33     O    0.36069   0.96959   0.03142   1.000
    N34     N    0.50198   0.71519   0.99929   1.000
    O35     O    0.52031   0.64486   0.02776   1.000
    O36     O    0.48969   0.77490   0.96939   1.000
    O37     O    0.48318   0.62736   0.96008   1.000
    N38     N    0.00210   0.78486   0.99925   1.000
    O39     O    0.02043   0.85519   0.02774   1.000
    O40     O    0.98976   0.72515   0.96936   1.000
    O41     O    0.98326   0.87268   0.96005   1.000
    N42     N    0.19615   0.50910   0.90611   1.000
    O43     O    0.11285   0.53221   0.91632   1.000
    O44     O    0.13928   0.46948   0.96855   1.000
    O45     O    0.27507   0.49292   0.90939   1.000
    N46     N    0.84500   0.12781   0.47400   1.000
    O47     O    0.71998   0.11164   0.29446   1.000
    O48     O    0.89823   0.09507   0.66539   1.000
    N49     N    0.65485   0.62774   0.52595   1.000
    O50     O    0.77990   0.61162   0.70550   1.000
    O51     O    0.60164   0.59504   0.33435   1.000
loop_
    _geom_bond_atom_site_label_1
    _geom_bond_atom_site_label_2
    _geom_bond_distance
    _geom_bond_site_symmetry_2
    _ccdc_geom_bond_type
    N8     O9        3.43122      .   S
    Zr3    O9        4.36613      .   S
    N8     O10       3.41555      .   S
    Zr0    O10       4.28886      .   S
    N11    O12       1.10837  1_554   S
    Zr6    O12       2.10074      .   S
    N11    O13       0.98341  1_655   S
    Zr3    O13       1.96958      .   S
    N11    O14       1.40545  1_655   S
    Zr2    O14       2.38471  1_565   S
    N15    O16       0.99656      .   S
    Zr4    O16       1.99529      .   S
    N15    O17       1.10084      .   S
    Zr3    O17       2.06599  1_455   S
    N15    O18       1.44566      .   S
    Zr7    O18       2.46300  1_556   S
    N19    O20       1.10823  1_554   S
    Zr0    O20       2.10051      .   S
    N19    O21       0.98348      .   S
    Zr5    O21       1.96969      .   S
    N19    O22       1.40567      .   S
    Zr4    O22       2.38512      .   S
    N23    O24       0.99668  1_565   S
    Zr6    O24       1.99555      .   S
    N23    O25       1.10088      .   S
    Zr1    O25       2.06593      .   S
    N23    O26       1.44558  1_565   S
    Zr5    O26       2.46265  1_554   S
    N27    O28       3.43127      .   S
    Zr1    O28       4.36613      .   S
    N27    O29       3.41544      .   S
    Zr2    O29       4.28872      .   S
    N30    O31       0.99668  1_545   S
    Zr2    O31       1.99556      .   S
    N30    O32       1.10090      .   S
    Zr5    O32       2.06592      .   S
    N30    O33       1.44555  1_545   S
    Zr1    O33       2.46270  1_556   S
    N34    O35       1.10818  1_556   S
    Zr4    O35       2.10035      .   S
    N34    O36       0.98347      .   S
    Zr1    O36       1.96971      .   S
    N34    O37       1.40571      .   S
    Zr0    O37       2.38525      .   S
    N38    O39       1.10837  1_556   S
    Zr2    O39       2.10070      .   S
    N38    O40       0.98348  1_455   S
    Zr7    O40       1.96975      .   S
    N38    O41       1.40545  1_455   S
    Zr6    O41       2.38475  1_545   S
    N42    O43       1.10081      .   S
    Zr7    O43       2.06593  1_655   S
    N42    O44       1.44559      .   S
    Zr3    O44       2.46265  1_554   S
    N42    O45       0.99656      .   S
    Zr0    O45       1.99532      .   S
    N46    O47       3.43115      .   S
    Zr5    O47       4.36602      .   S
    N46    O48       3.41561      .   S
    Zr6    O48       4.28880      .   S
    N49    O50       3.43144      .   S
    Zr7    O50       4.36603      .   S
    N49    O51       3.41911      .   S
    Zr4    O51       4.28501      .   S
