# CIF file generated by openbabel 2.4.90, see http://openbabel.sf.net
data_I
_chemical_name_common ''
_cell_length_a 15.74
_cell_length_b 23.167
_cell_length_c 13.534
_cell_angle_alpha 90.001
_cell_angle_beta 90
_cell_angle_gamma 109.791
_space_group_name_H-M_alt 'P 1'
_space_group_name_Hall 'P 1'
loop_
    _symmetry_equiv_pos_as_xyz
    x,y,z
loop_
    _atom_site_label
    _atom_site_type_symbol
    _atom_site_fract_x
    _atom_site_fract_y
    _atom_site_fract_z
    _atom_site_occupancy
    H0      H    0.09597   0.05532   0.90478   1.000
    H1      H    0.09597   0.55533   0.90470   1.000
    H2      H    0.59597   0.05532   0.90470   1.000
    H3      H    0.59597   0.55533   0.90478   1.000
    H4      H    0.19658   0.09637   0.83921   1.000
    H5      H    0.19658   0.59638   0.83921   1.000
    H6      H    0.69658   0.09638   0.83921   1.000
    H7      H    0.69658   0.59638   0.83921   1.000
    H8      H    0.04077   0.44383   0.59523   1.000
    H9      H    0.04077   0.94384   0.59523   1.000
    H10     H    0.54077   0.44383   0.59523   1.000
    H11     H    0.54077   0.94384   0.59523   1.000
    H12     H    0.10083   0.40305   0.66085   1.000
    H13     H    0.10083   0.90306   0.66085   1.000
    H14     H    0.60083   0.40305   0.66085   1.000
    H15     H    0.60083   0.90306   0.66085   1.000
    H16     H    0.09597   0.05532   0.59523   1.000
    H17     H    0.09597   0.55532   0.59523   1.000
    H18     H    0.59597   0.05532   0.59523   1.000
    H19     H    0.59597   0.55533   0.59523   1.000
    H20     H    0.19658   0.09638   0.66080   1.000
    H21     H    0.19658   0.59638   0.66080   1.000
    H22     H    0.69658   0.09638   0.66080   1.000
    H23     H    0.69658   0.59638   0.66080   1.000
    H24     H    0.04077   0.44383   0.90477   1.000
    H25     H    0.04077   0.94384   0.90477   1.000
    H26     H    0.54077   0.44383   0.90477   1.000
    H27     H    0.54077   0.94384   0.90477   1.000
    H28     H    0.10083   0.40305   0.83915   1.000
    H29     H    0.10083   0.90306   0.83910   1.000
    H30     H    0.60083   0.40305   0.83910   1.000
    H31     H    0.60083   0.90306   0.83915   1.000
    H32     H    0.46075   0.99943   0.81593   1.000
    H33     H    0.46074   0.49944   0.81593   1.000
    H34     H    0.96074   0.99943   0.81593   1.000
    H35     H    0.96074   0.49944   0.81593   1.000
    H36     H    0.46075   0.99943   0.68407   1.000
    H37     H    0.46074   0.49944   0.68408   1.000
    H38     H    0.96074   0.99943   0.68408   1.000
    H39     H    0.96074   0.49944   0.68407   1.000
    H40     H    0.23737   0.45896   0.75000   1.000
    H41     H    0.23737   0.95896   0.75000   1.000
    H42     H    0.73737   0.45896   0.75000   1.000
    H43     H    0.73737   0.95896   0.75000   1.000
    H44     H    0.27790   0.04085   0.75000   1.000
    H45     H    0.27790   0.54086   0.75000   1.000
    H46     H    0.77790   0.04085   0.75000   1.000
    H47     H    0.77791   0.54086   0.75000   1.000
    H48     H    0.40405   0.44470   0.40477   1.000
    H49     H    0.40405   0.94470   0.40477   1.000
    H50     H    0.90406   0.44469   0.40477   1.000
    H51     H    0.90406   0.94470   0.40477   1.000
    H52     H    0.30344   0.40364   0.33920   1.000
    H53     H    0.30344   0.90365   0.33920   1.000
    H54     H    0.80345   0.40364   0.33920   1.000
    H55     H    0.80344   0.90365   0.33920   1.000
    H56     H    0.45925   0.05618   0.09523   1.000
    H57     H    0.45925   0.55619   0.09523   1.000
    H58     H    0.95926   0.05618   0.09523   1.000
    H59     H    0.95926   0.55619   0.09523   1.000
    H60     H    0.39919   0.09696   0.16080   1.000
    H61     H    0.39919   0.59697   0.16085   1.000
    H62     H    0.89919   0.09696   0.16085   1.000
    H63     H    0.89919   0.59697   0.16080   1.000
    H64     H    0.40405   0.44469   0.09520   1.000
    H65     H    0.40405   0.94470   0.09522   1.000
    H66     H    0.90406   0.44469   0.09522   1.000
    H67     H    0.90406   0.94470   0.09522   1.000
    H68     H    0.30344   0.40364   0.16079   1.000
    H69     H    0.30344   0.90364   0.16079   1.000
    H70     H    0.80345   0.40364   0.16079   1.000
    H71     H    0.80344   0.90364   0.16079   1.000
    H72     H    0.45925   0.05618   0.40477   1.000
    H73     H    0.45925   0.55619   0.40477   1.000
    H74     H    0.95926   0.05618   0.40477   1.000
    H75     H    0.95926   0.55619   0.40477   1.000
    C76     C    0.91915   0.55589   0.16162   1.000
    C77     C    0.36413   0.44484   0.16160   1.000
    C78     C    0.36414   0.94485   0.16160   1.000
    C79     C    0.86414   0.44484   0.16160   1.000
    H80     H    0.39919   0.09696   0.33915   1.000
    H81     H    0.39919   0.59697   0.33915   1.000
    H82     H    0.89919   0.09696   0.33915   1.000
    H83     H    0.89920   0.59697   0.33915   1.000
    H84     H    0.03928   0.00058   0.31590   1.000
    H85     H    0.03929   0.50058   0.31592   1.000
    H86     H    0.53928   0.00058   0.31592   1.000
    H87     H    0.53928   0.50058   0.31593   1.000
    H88     H    0.03928   0.00058   0.18407   1.000
    H89     H    0.03929   0.50058   0.18407   1.000
    H90     H    0.53928   0.00058   0.18407   1.000
    H91     H    0.53928   0.50058   0.18407   1.000
    H92     H    0.26265   0.04106   0.25000   1.000
    H93     H    0.26265   0.54106   0.25000   1.000
    H94     H    0.76265   0.04106   0.25000   1.000
    H95     H    0.76265   0.54106   0.25000   1.000
    H96     H    0.22212   0.45916   0.25000   1.000
    H97     H    0.22212   0.95917   0.25000   1.000
    H98     H    0.72212   0.45916   0.25000   1.000
    H99     H    0.72212   0.95916   0.25000   1.000
    C100    C    0.17504   0.10601   0.12242   1.000
    C101    C    0.17504   0.60601   0.12242   1.000
    C102    C    0.67504   0.10600   0.12242   1.000
    C103    C    0.67504   0.60601   0.12242   1.000
    C104    C    0.32498   0.39401   0.62242   1.000
    C105    C    0.32498   0.89401   0.62242   1.000
    C106    C    0.82498   0.39400   0.62242   1.000
    C107    C    0.82498   0.89401   0.62242   1.000
    N108    N    0.27667   0.24252   0.25000   1.000
    N109    N    0.27666   0.74253   0.25000   1.000
    N110    N    0.77666   0.24252   0.25000   1.000
    N111    N    0.77666   0.74253   0.25000   1.000
    N112    N    0.22336   0.25749   0.75000   1.000
    C113    C    0.06915   0.89451   0.37751   1.000
    C114    C    0.56915   0.39451   0.37751   1.000
    C115    C    0.56915   0.89451   0.37751   1.000
    C116    C    0.43088   0.10551   0.87752   1.000
    C117    C    0.43088   0.60552   0.87752   1.000
    C118    C    0.93088   0.10551   0.87752   1.000
    C119    C    0.93088   0.60552   0.87752   1.000
    C120    C    0.32499   0.39401   0.87758   1.000
    C121    C    0.32499   0.89402   0.87758   1.000
    C122    C    0.82498   0.39401   0.87758   1.000
    C123    C    0.82498   0.89401   0.87758   1.000
    C124    C    0.17504   0.10601   0.37758   1.000
    C125    C    0.17504   0.60601   0.37758   1.000
    C126    C    0.67504   0.10601   0.37758   1.000
    C127    C    0.67504   0.60601   0.37758   1.000
    C128    C    0.43088   0.10551   0.62249   1.000
    C129    C    0.43088   0.60551   0.62249   1.000
    C130    C    0.93088   0.10551   0.62240   1.000
    C131    C    0.93088   0.60552   0.62249   1.000
    C132    C    0.06914   0.39450   0.12248   1.000
    C133    C    0.06915   0.89451   0.12248   1.000
    C134    C    0.56914   0.39450   0.12248   1.000
    C135    C    0.56914   0.89451   0.12248   1.000
    C136    C    0.06248   0.21742   0.25000   1.000
    C137    C    0.06248   0.71742   0.25000   1.000
    C138    C    0.56248   0.21742   0.25000   1.000
    C139    C    0.56248   0.71742   0.25000   1.000
    C140    C    0.43755   0.28260   0.75000   1.000
    C141    C    0.43755   0.78260   0.75000   1.000
    C142    C    0.93755   0.28260   0.75000   1.000
    C143    C    0.93755   0.78260   0.75000   1.000
    C144    C    0.34525   0.28332   0.25000   1.000
    C145    C    0.34525   0.78333   0.25000   1.000
    C146    C    0.84525   0.28332   0.25000   1.000
    C147    C    0.84525   0.78333   0.25000   1.000
    C148    C    0.15477   0.21669   0.75000   1.000
    C149    C    0.15478   0.71670   0.75000   1.000
    C150    C    0.65477   0.21669   0.75000   1.000
    C151    C    0.65477   0.71670   0.75000   1.000
    C152    C    0.13589   0.05517   0.83840   1.000
    C153    C    0.13589   0.55518   0.83840   1.000
    C154    C    0.63589   0.05517   0.83840   1.000
    C155    C    0.63589   0.55518   0.83840   1.000
    C156    C    0.08087   0.44412   0.66162   1.000
    C157    C    0.08087   0.94413   0.66162   1.000
    C158    C    0.58088   0.44412   0.66162   1.000
    C159    C    0.58088   0.94413   0.66162   1.000
    C160    C    0.13588   0.05517   0.66160   1.000
    C161    C    0.13589   0.55518   0.66160   1.000
    C162    C    0.63589   0.05517   0.66160   1.000
    C163    C    0.63589   0.55518   0.66160   1.000
    C164    C    0.08087   0.44412   0.83838   1.000
    C165    C    0.08087   0.94414   0.83838   1.000
    C166    C    0.58088   0.44413   0.83838   1.000
    C167    C    0.58088   0.94413   0.83838   1.000
    C168    C    0.50135   0.99949   0.75000   1.000
    C169    C    0.50136   0.49950   0.75000   1.000
    C170    C    0.00000   0.99949   0.75000   1.000
    C171    C    0.00000   0.49950   0.75000   1.000
    C172    C    0.21717   0.99983   0.75000   1.000
    C173    C    0.21717   0.49983   0.75000   1.000
    C174    C    0.71717   0.99983   0.75000   1.000
    C175    C    0.71717   0.49983   0.75000   1.000
    C176    C    0.36414   0.44484   0.33840   1.000
    C177    C    0.36414   0.94485   0.33840   1.000
    C178    C    0.86414   0.44484   0.33840   1.000
    C179    C    0.86414   0.94485   0.33840   1.000
    C180    C    0.41915   0.05589   0.16162   1.000
    C181    C    0.41915   0.55590   0.16162   1.000
    C182    C    0.91915   0.05589   0.16162   1.000
    C183    C    0.86414   0.94485   0.16160   1.000
    C184    C    0.41915   0.05589   0.33838   1.000
    C185    C    0.41915   0.55590   0.33838   1.000
    C186    C    0.91915   0.05589   0.33838   1.000
    C187    C    0.91915   0.55589   0.33838   1.000
    C188    C    0.99867   0.00052   0.25000   1.000
    C189    C    0.99867   0.50052   0.25000   1.000
    C190    C    0.49867   0.00051   0.25000   1.000
    C191    C    0.49867   0.50052   0.25000   1.000
    C192    C    0.28285   0.00018   0.25000   1.000
    C193    C    0.28285   0.50018   0.25000   1.000
    C194    C    0.78285   0.00018   0.25000   1.000
    C195    C    0.78285   0.50018   0.25000   1.000
    N196    N    0.19714   0.07424   0.06820   1.000
    N197    N    0.19714   0.57425   0.06820   1.000
    N198    N    0.69714   0.07424   0.06822   1.000
    N199    N    0.69714   0.57425   0.06822   1.000
    N200    N    0.30288   0.42577   0.56822   1.000
    N201    N    0.30288   0.92578   0.56822   1.000
    N202    N    0.80288   0.42577   0.56822   1.000
    N203    N    0.80288   0.92578   0.56822   1.000
    N204    N    0.12317   0.92619   0.43156   1.000
    N205    N    0.62317   0.42618   0.43156   1.000
    N206    N    0.62317   0.92619   0.43156   1.000
    N207    N    0.37685   0.07383   0.93157   1.000
    N208    N    0.37685   0.57384   0.93157   1.000
    N209    N    0.87685   0.07383   0.93157   1.000
    N210    N    0.87685   0.57384   0.93157   1.000
    N211    N    0.30288   0.42578   0.93170   1.000
    N212    N    0.30288   0.92578   0.93170   1.000
    N213    N    0.80288   0.42578   0.93179   1.000
    N214    N    0.80288   0.92578   0.93179   1.000
    N215    N    0.19714   0.07424   0.43178   1.000
    N216    N    0.19714   0.57425   0.43178   1.000
    N217    N    0.69714   0.07424   0.43178   1.000
    N218    N    0.69714   0.57425   0.43178   1.000
    N219    N    0.37685   0.07383   0.56844   1.000
    N220    N    0.37685   0.57384   0.56844   1.000
    N221    N    0.87685   0.07383   0.56844   1.000
    N222    N    0.87685   0.57384   0.56844   1.000
    N223    N    0.12317   0.42618   0.06843   1.000
    N224    N    0.12317   0.92618   0.06843   1.000
    N225    N    0.62317   0.42618   0.06843   1.000
    N226    N    0.62317   0.92618   0.06843   1.000
    N227    N    0.03421   0.25805   0.20000   1.000
    N228    N    0.03421   0.75806   0.20000   1.000
    N229    N    0.53421   0.25805   0.20000   1.000
    N230    N    0.53421   0.75806   0.20000   1.000
    N231    N    0.46581   0.24196   0.75000   1.000
    N232    N    0.46581   0.74197   0.75000   1.000
    N233    N    0.96581   0.24196   0.75000   1.000
    N234    N    0.96581   0.74197   0.75000   1.000
    N235    N    0.22336   0.75750   0.75000   1.000
    N236    N    0.72336   0.25749   0.75000   1.000
    N237    N    0.72336   0.75750   0.75000   1.000
    N238    N    0.16411   0.99974   0.84105   1.000
    N239    N    0.16411   0.49975   0.84105   1.000
    N240    N    0.66411   0.99974   0.84105   1.000
    N241    N    0.66411   0.49975   0.84105   1.000
    N242    N    0.16411   0.99974   0.65895   1.000
    N243    N    0.16410   0.49975   0.65895   1.000
    N244    N    0.66411   0.99974   0.65895   1.000
    N245    N    0.66411   0.49975   0.65895   1.000
    N246    N    0.08183   0.05564   0.75000   1.000
    N247    N    0.08183   0.55565   0.75000   1.000
    N248    N    0.58183   0.05564   0.75000   1.000
    N249    N    0.58183   0.55565   0.75000   1.000
    N250    N    0.02626   0.44351   0.75000   1.000
    N251    N    0.02626   0.94351   0.75000   1.000
    N252    N    0.52626   0.44351   0.75000   1.000
    N253    N    0.52626   0.94351   0.75000   1.000
    N254    N    0.33592   0.00026   0.34105   1.000
    N255    N    0.33592   0.50027   0.34105   1.000
    N256    N    0.83592   0.00026   0.34100   1.000
    N257    N    0.83592   0.50027   0.34100   1.000
    N258    N    0.33592   0.00026   0.15895   1.000
    N259    N    0.33592   0.50027   0.15895   1.000
    N260    N    0.83592   0.00026   0.15895   1.000
    N261    N    0.83592   0.50027   0.15895   1.000
    N262    N    0.41819   0.44437   0.25000   1.000
    N263    N    0.41819   0.94438   0.25000   1.000
    N264    N    0.91819   0.44437   0.25000   1.000
    N265    N    0.91819   0.94438   0.25000   1.000
    N266    N    0.47376   0.05651   0.25000   1.000
    N267    N    0.47376   0.55651   0.25000   1.000
    N268    N    0.97376   0.05651   0.25000   1.000
    N269    N    0.97376   0.55652   0.25000   1.000
loop_
    _geom_bond_atom_site_label_1
    _geom_bond_atom_site_label_2
    _geom_bond_distance
    _geom_bond_site_symmetry_2
    _ccdc_geom_bond_type
    N197   C101      1.17243      .   S
    N196   C100      1.17241      .   S
    N198   C102      1.17226      .   S
    N199   C103      1.17225      .   S
    N223   C132      1.17224      .   S
    N226   C135      1.17223      .   S
    N224   C133      1.17222      .   S
    N225   C134      1.17223      .   S
    H64    C77       1.09719      .   S
    H67    C183      1.09696      .   S
    H66    C79       1.09695      .   S
    H65    C78       1.09695      .   S
    H59    C76       1.09681      .   S
    H58    C182      1.09682      .   S
    H57    C181      1.09683      .   S
    H56    C180      1.09681      .   S
    N258   C78       1.49426  1_545   S
    N258   C180      1.49498      .   S
    N258   C192      1.48828      .   S
    N259   C77       1.49464      .   S
    N259   C181      1.49497      .   S
    N259   C193      1.48830      .   S
    N260   C183      1.49427  1_545   S
    N260   C182      1.49497      .   S
    N260   C194      1.48830      .   S
    N261   C79       1.49464      .   S
    N261   C76       1.49497      .   S
    N261   C195      1.48829      .   S
    H70    C79       1.09838      .   S
    H71    C183      1.09836      .   S
    H68    C77       1.09837      .   S
    H69    C78       1.09838      .   S
    H60    C180      1.09842      .   S
    H63    C76       1.09843      .   S
    H61    C181      1.09841      .   S
    H62    C182      1.09842      .   S
    C77    N262      1.47029      .   S
    C183   N265      1.47028      .   S
    C79    N264      1.47027      .   S
    C78    N263      1.47028      .   S
    C76    N269      1.47022      .   S
    C180   N266      1.47022      .   S
    C181   N267      1.47023      .   S
    C182   N268      1.47023      .   S
    H91    C191      1.09732      .   S
    H90    C190      1.09736      .   S
    H89    C189      1.09738  1_455   S
    H88    C188      1.09735  1_455   S
    N230   C139      1.35122      .   S
    N229   C138      1.35122      .   S
    N228   C137      1.35122      .   S
    N227   C136      1.35121      .   S
    N111   C147      1.16955      .   S
    H93    C193      1.09632      .   S
    H92    C192      1.09632      .   S
    N108   C144      1.16955      .   S
    N109   C145      1.16954      .   S
    N110   C146      1.16955      .   S
    H96    C193      1.09633      .   S
    N262   C191      1.47682      .   S
    N262   C176      1.47029      .   S
    N263   C190      1.47658  1_565   S
    N263   C177      1.47028      .   S
    N264   C189      1.47683      .   S
    N264   C178      1.47027      .   S
    N265   C188      1.47661  1_565   S
    N265   C179      1.47028      .   S
    N266   C190      1.47673      .   S
    N266   C184      1.47022      .   S
    N267   C191      1.47672      .   S
    N267   C185      1.47023      .   S
    N268   C188      1.47672      .   S
    N268   C186      1.47022      .   S
    N269   C189      1.47673      .   S
    N269   C187      1.47022      .   S
    C189   H85       1.09727  1_655   S
    C190   H86       1.09726      .   S
    C191   H87       1.09732      .   S
    H94    C194      1.09633      .   S
    C192   H97       1.09611  1_545   S
    C192   N254      1.48829      .   S
    C193   N255      1.48830      .   S
    C194   H99       1.09610  1_545   S
    C194   N256      1.48774      .   S
    C195   H98       1.09633      .   S
    C195   H95       1.09634      .   S
    C195   N257      1.48773      .   S
    C188   H84       1.09702  1_655   S
    C187   H83       1.09841      .   S
    C187   N257      1.49496      .   S
    C187   H75       1.09681      .   S
    C186   H82       1.09841      .   S
    C186   N256      1.49497      .   S
    C186   H74       1.09682      .   S
    C185   H81       1.09841      .   S
    C185   N255      1.49498      .   S
    C185   H73       1.09683      .   S
    C184   H80       1.09840      .   S
    C184   N254      1.49498      .   S
    C184   H72       1.09681      .   S
    C179   H55       1.09838      .   S
    C179   N256      1.49422  1_565   S
    C179   H51       1.09685      .   S
    C178   H54       1.09839      .   S
    C178   N257      1.49460      .   S
    C178   H50       1.09685      .   S
    C177   H53       1.09838      .   S
    C177   N254      1.49425  1_565   S
    C177   H49       1.09685      .   S
    C176   H52       1.09838      .   S
    C176   N255      1.49463      .   S
    C176   H48       1.09686      .   S
    C115   N206      1.17222      .   S
    C113   N204      1.17222      .   S
    C114   N205      1.17222      .   S
    C124   N215      1.17226      .   S
    C125   N216      1.17226      .   S
    C126   N217      1.17227      .   S
    C127   N218      1.17227      .   S
    N200   C104      1.17224      .   S
    N201   C105      1.17226      .   S
    N202   C106      1.17225      .   S
    N203   C107      1.17225      .   S
    N220   C129      1.17222      .   S
    N222   C131      1.17222      .   S
    N221   C130      1.17146      .   S
    N219   C128      1.17223      .   S
    H11    C159      1.09682      .   S
    H8     C156      1.09682      .   S
    H9     C157      1.09681      .   S
    H10    C158      1.09681      .   S
    H16    C160      1.09685      .   S
    H17    C161      1.09685      .   S
    H18    C162      1.09686      .   S
    H19    C163      1.09685      .   S
    N245   C163      1.49462      .   S
    N245   C158      1.49498      .   S
    N245   C175      1.48828      .   S
    N244   C162      1.49461  1_565   S
    N244   C159      1.49474      .   S
    N244   C174      1.48830      .   S
    N243   C161      1.49464      .   S
    N243   C156      1.49498      .   S
    N243   C173      1.48830      .   S
    N242   C160      1.49464  1_565   S
    N242   C157      1.49474      .   S
    N242   C172      1.48829      .   S
    H20    C160      1.09838      .   S
    H23    C163      1.09838      .   S
    H22    C162      1.09838      .   S
    H21    C161      1.09837      .   S
    H12    C156      1.09840      .   S
    H13    C157      1.09841      .   S
    H14    C158      1.09841      .   S
    H15    C159      1.09841      .   S
    C163   N249      1.47029      .   S
    C162   N248      1.47029      .   S
    C161   N247      1.47028      .   S
    C160   N246      1.47028      .   S
    C157   N251      1.47022      .   S
    C159   N253      1.47023      .   S
    C158   N252      1.47022      .   S
    C156   N250      1.47023      .   S
    H36    C168      1.09733      .   S
    H39    C171      1.08510  1_655   S
    H38    C170      1.08501  1_655   S
    H37    C169      1.09725      .   S
    H47    C175      1.09634      .   S
    N232   C141      1.16956      .   S
    N251   C170      1.48843      .   S
    N251   C165      1.47021      .   S
    N250   C171      1.48880      .   S
    N250   C164      1.47023      .   S
    N249   C169      1.47682      .   S
    N249   C155      1.47028      .   S
    N248   C168      1.47682  1_545   S
    N248   C154      1.47028      .   S
    N247   C171      1.48884      .   S
    N247   C153      1.47028      .   S
    N246   C170      1.48885  1_545   S
    N246   C152      1.47028      .   S
    N237   C151      1.16955      .   S
    N236   C150      1.16955      .   S
    N235   C149      1.16955      .   S
    N112   C148      1.16955      .   S
    H46    C174      1.09633  1_545   S
    N252   C169      1.47671      .   S
    N252   C166      1.47022      .   S
    N234   C143      1.16957      .   S
    N233   C142      1.16954      .   S
    N231   C140      1.16956      .   S
    N253   C168      1.47633      .   S
    N253   C167      1.47022      .   S
    H44    C172      1.09634  1_545   S
    H45    C173      1.09633      .   S
    C173   H40       1.09632      .   S
    C173   N239      1.48830      .   S
    H41    C172      1.09595      .   S
    H42    C175      1.09635      .   S
    H43    C174      1.09596      .   S
    C175   N241      1.48828      .   S
    C174   N240      1.48829      .   S
    C172   N238      1.48828      .   S
    C171   H35       1.08510  1_455   S
    C170   H34       1.08512  1_455   S
    C169   H33       1.09736      .   S
    C168   H32       1.09733      .   S
    C164   H28       1.09843      .   S
    C164   N239      1.49498      .   S
    C164   H24       1.09683      .   S
    C165   H29       1.09841      .   S
    C165   N238      1.49474      .   S
    C165   H25       1.09680      .   S
    C166   H30       1.09841      .   S
    C166   N241      1.49498      .   S
    C166   H26       1.09680      .   S
    C167   H31       1.09842      .   S
    C167   N240      1.49475      .   S
    C167   H27       1.09681      .   S
    C152   H4        1.09839      .   S
    C152   N238      1.49463  1_545   S
    C152   H0        1.09695      .   S
    C153   H5        1.09839      .   S
    C153   N239      1.49462      .   S
    C153   H1        1.09608      .   S
    C154   H6        1.09839      .   S
    C154   N240      1.49462  1_545   S
    C154   H2        1.09607      .   S
    C155   H7        1.09838      .   S
    C155   N241      1.49462      .   S
    C155   H3        1.09695      .   S
    C118   N209      1.17223      .   S
    C117   N208      1.17224      .   S
    C119   N210      1.17223      .   S
    C116   N207      1.17224      .   S
    C122   N213      1.17231      .   S
    C120   N211      1.17155      .   S
    C121   N212      1.17157      .   S
    C123   N214      1.17231      .   S
