# CIF file generated by openbabel 2.4.90, see http://openbabel.sf.net
data_I
_chemical_name_common ''
_cell_length_a 15.74
_cell_length_b 23.167
_cell_length_c 13.534
_cell_angle_alpha 90.001
_cell_angle_beta 90
_cell_angle_gamma 109.791
_space_group_name_H-M_alt 'P 1'
_space_group_name_Hall 'P 1'
loop_
    _symmetry_equiv_pos_as_xyz
    x,y,z
loop_
    _atom_site_label
    _atom_site_type_symbol
    _atom_site_fract_x
    _atom_site_fract_y
    _atom_site_fract_z
    _atom_site_occupancy
    Cd0     Cd   0.14260   0.65669   0.25000   1.000
    Cd1     Cd   0.64260   0.15668   0.25000   1.000
    Cd2     Cd   0.64260   0.65669   0.25000   1.000
    Cd3     Cd   0.35742   0.34333   0.75000   1.000
    Cd4     Cd   0.35742   0.84334   0.75000   1.000
    Cd5     Cd   0.85742   0.34333   0.75000   1.000
    Cd6     Cd   0.85742   0.84334   0.75000   1.000
    Cd7     Cd   0.48594   0.34403   0.24999   1.000
    Cd8     Cd   0.48594   0.84404   0.24999   1.000
    Cd9     Cd   0.98594   0.34403   0.20000   1.000
    Cd10    Cd   0.98594   0.84404   0.24999   1.000
    Cd11    Cd   0.01409   0.15598   0.75000   1.000
    Cd12    Cd   0.01409   0.65599   0.75000   1.000
    Cd13    Cd   0.51408   0.15598   0.75000   1.000
    Cd14    Cd   0.51408   0.65599   0.75000   1.000
    Cd15    Cd   0.25001   1.00000   0.99999   1.000
    Cd16    Cd   0.25001   0.50001   0.99999   1.000
    Cd17    Cd   0.75001   1.00000   0.00000   1.000
    Cd18    Cd   0.75001   0.50001   0.00000   1.000
    Cd19    Cd   0.25001   0.00000   0.50000   1.000
    Cd20    Cd   0.25001   0.50001   0.50000   1.000
    Cd21    Cd   0.75001   0.00000   0.50000   1.000
    Cd22    Cd   0.75001   0.50001   0.50000   1.000
    Cd23    Cd   0.14260   0.15668   0.25000   1.000
