# CIF file generated by openbabel 2.4.90, see http://openbabel.sf.net
data_I
_chemical_name_common ''
_cell_length_a 15.74
_cell_length_b 23.167
_cell_length_c 13.534
_cell_angle_alpha 90.001
_cell_angle_beta 90
_cell_angle_gamma 109.791
_space_group_name_H-M_alt 'P 1'
_space_group_name_Hall 'P 1'
loop_
    _symmetry_equiv_pos_as_xyz
    x,y,z
loop_
    _atom_site_label
    _atom_site_type_symbol
    _atom_site_fract_x
    _atom_site_fract_y
    _atom_site_fract_z
    _atom_site_occupancy
    N0      N    0.10873   0.99966   0.75000   1.000
    N1      N    0.10873   0.49966   0.75000   1.000
    N2      N    0.60879   0.99966   0.75000   1.000
    N3      N    0.60879   0.49966   0.75000   1.000
    N4      N    0.39123   0.50036   0.25000   1.000
    N5      N    0.39123   0.00036   0.25000   1.000
    N6      N    0.89123   0.50036   0.24999   1.000
    N7      N    0.89123   0.00036   0.25000   1.000
    N8      N    0.18609   0.09012   0.09531   1.000
    N9      N    0.18609   0.59013   0.09531   1.000
    N10     N    0.68609   0.09012   0.09532   1.000
    N11     N    0.68609   0.59013   0.09532   1.000
    N12     N    0.31393   0.40989   0.59532   1.000
    N13     N    0.31393   0.90990   0.59532   1.000
    N14     N    0.81393   0.40989   0.59532   1.000
    N15     N    0.81393   0.90990   0.59532   1.000
    N16     N    0.31096   0.26292   0.25000   1.000
    N17     N    0.31096   0.76293   0.25000   1.000
    N18     N    0.81096   0.26292   0.25000   1.000
    N19     N    0.81096   0.76293   0.25000   1.000
    N20     N    0.09616   0.91035   0.40453   1.000
    N21     N    0.59616   0.41034   0.40453   1.000
    N22     N    0.59616   0.91035   0.40453   1.000
    N23     N    0.40386   0.08967   0.90454   1.000
    N24     N    0.40386   0.58968   0.90454   1.000
    N25     N    0.90386   0.08967   0.90454   1.000
    N26     N    0.90387   0.58968   0.90454   1.000
    N27     N    0.31393   0.40989   0.90464   1.000
    N28     N    0.31393   0.90990   0.90464   1.000
    N29     N    0.81393   0.40989   0.90468   1.000
    N30     N    0.81393   0.90990   0.90468   1.000
    N31     N    0.18609   0.09012   0.40468   1.000
    N32     N    0.18609   0.59013   0.40468   1.000
    N33     N    0.68609   0.09012   0.40468   1.000
    N34     N    0.68609   0.59013   0.40468   1.000
    N35     N    0.40386   0.08967   0.59546   1.000
    N36     N    0.40386   0.58968   0.59546   1.000
    N37     N    0.90386   0.08967   0.59542   1.000
    N38     N    0.90386   0.58968   0.59546   1.000
    N39     N    0.09616   0.41034   0.09545   1.000
    N40     N    0.09616   0.91035   0.09545   1.000
    N41     N    0.59616   0.41034   0.09545   1.000
    N42     N    0.59616   0.91035   0.09545   1.000
    N43     N    0.04835   0.23774   0.22500   1.000
    N44     N    0.04835   0.73774   0.22500   1.000
    N45     N    0.54834   0.23774   0.22500   1.000
    N46     N    0.54834   0.73774   0.22500   1.000
    N47     N    0.45168   0.26228   0.75000   1.000
    N48     N    0.45168   0.76229   0.75000   1.000
    N49     N    0.95168   0.26228   0.75000   1.000
    N50     N    0.95168   0.76229   0.75000   1.000
    N51     N    0.18907   0.23709   0.75000   1.000
    N52     N    0.18907   0.73710   0.75000   1.000
    N53     N    0.68906   0.23709   0.75000   1.000
    N54     N    0.68907   0.73710   0.75000   1.000
    Zr55    Zr   0.48594   0.34403   0.24999   1.000
    O56     O    0.52389   0.36692   0.19542   1.000
    O57     O    0.50758   0.30671   0.23749   1.000
    O58     O    0.52390   0.36692   0.30457   1.000
    O59     O    0.42461   0.31617   0.24999   1.000
    Zr60    Zr   0.48594   0.84404   0.24999   1.000
    O61     O    0.52389   0.86693   0.19542   1.000
    O62     O    0.50758   0.80672   0.23749   1.000
    O63     O    0.42461   0.81617   0.24999   1.000
    O64     O    0.52390   0.86693   0.30457   1.000
    Zr65    Zr   0.98594   0.34403   0.20000   1.000
    O66     O    0.00757   0.30671   0.20625   1.000
    O67     O    0.92461   0.31617   0.21875   1.000
    O68     O    0.02389   0.36692   0.16417   1.000
    Zr69    Zr   0.98594   0.84404   0.24999   1.000
    O70     O    0.02389   0.86693   0.19542   1.000
    O71     O    0.00757   0.80672   0.23749   1.000
    O72     O    0.92461   0.81617   0.24999   1.000
    O73     O    0.02389   0.86693   0.30457   1.000
    Zr74    Zr   0.01409   0.15598   0.75000   1.000
    O75     O    0.97613   0.13309   0.69540   1.000
    O76     O    0.99245   0.19330   0.75000   1.000
    O77     O    0.07542   0.18385   0.75000   1.000
    O78     O    0.97613   0.13309   0.80458   1.000
    Zr79    Zr   0.01409   0.65599   0.75000   1.000
    O80     O    0.97613   0.63310   0.69543   1.000
    O81     O    0.99245   0.69331   0.75000   1.000
    O82     O    0.07542   0.68386   0.75000   1.000
    O83     O    0.97613   0.63310   0.80458   1.000
    Zr84    Zr   0.51408   0.15598   0.75000   1.000
    O85     O    0.49245   0.19330   0.75000   1.000
    O86     O    0.47613   0.13309   0.80458   1.000
    O87     O    0.47613   0.13309   0.69543   1.000
    O88     O    0.57541   0.18385   0.75000   1.000
    Zr89    Zr   0.51408   0.65599   0.75000   1.000
    O90     O    0.47613   0.63310   0.69543   1.000
    O91     O    0.57542   0.68385   0.75000   1.000
    O92     O    0.49245   0.69331   0.75000   1.000
    O93     O    0.47613   0.63310   0.80458   1.000
    Zr94    Zr   0.25001   1.00000   0.99999   1.000
    O95     O    0.19569   0.96836   0.03241   1.000
    O96     O    0.30433   0.03165   0.96758   1.000
    O97     O    0.22742   0.03181   0.03235   1.000
    O98     O    0.27260   0.96820   0.96762   1.000
    O99     O    0.20395   0.99988   0.91762   1.000
    O100    O    0.29605   0.00012   0.08236   1.000
    Zr101   Zr   0.25001   0.50001   0.99999   1.000
    O102    O    0.22742   0.53182   0.03235   1.000
    O103    O    0.27260   0.46820   0.96762   1.000
    O104    O    0.19569   0.46836   0.03241   1.000
    O105    O    0.30433   0.53166   0.96758   1.000
    O106    O    0.20395   0.49989   0.91762   1.000
    O107    O    0.29605   0.50013   0.08236   1.000
    Zr108   Zr   0.75001   1.00000   0.00000   1.000
    O109    O    0.79606   0.00012   0.08237   1.000
    O110    O    0.72742   0.03181   0.03236   1.000
    O111    O    0.69569   0.96836   0.03242   1.000
    O112    O    0.80433   0.03165   0.96758   1.000
    O113    O    0.77260   0.96820   0.96764   1.000
    O114    O    0.70397   0.99988   0.91763   1.000
    Zr115   Zr   0.75001   0.50001   0.00000   1.000
    O116    O    0.72742   0.53182   0.03236   1.000
    O117    O    0.69569   0.46836   0.03242   1.000
    O118    O    0.80433   0.53166   0.96758   1.000
    O119    O    0.77260   0.46820   0.96764   1.000
    O120    O    0.70397   0.49989   0.91763   1.000
    O121    O    0.79606   0.50013   0.08237   1.000
    Zr122   Zr   0.25001   0.00000   0.50000   1.000
    O123    O    0.19569   0.96836   0.46758   1.000
    O124    O    0.30433   0.03165   0.53242   1.000
    O125    O    0.27260   0.96820   0.53236   1.000
    O126    O    0.22742   0.03181   0.46764   1.000
    O127    O    0.20395   0.99988   0.58237   1.000
    O128    O    0.29605   0.00012   0.41763   1.000
    Zr129   Zr   0.25001   0.50001   0.50000   1.000
    O130    O    0.27260   0.46820   0.53236   1.000
    O131    O    0.30433   0.53166   0.53242   1.000
    O132    O    0.22742   0.53182   0.46764   1.000
    O133    O    0.20395   0.49989   0.58237   1.000
    O134    O    0.29605   0.50013   0.41763   1.000
    Zr135   Zr   0.75001   0.00000   0.50000   1.000
    O136    O    0.79606   0.00012   0.41762   1.000
    O137    O    0.80433   0.03165   0.53241   1.000
    O138    O    0.69569   0.96836   0.46758   1.000
    O139    O    0.72742   0.03181   0.46764   1.000
    O140    O    0.77260   0.96820   0.53236   1.000
    O141    O    0.70397   0.99988   0.58237   1.000
    Zr142   Zr   0.75001   0.50001   0.50000   1.000
    O143    O    0.69569   0.46836   0.46758   1.000
    O144    O    0.80433   0.53166   0.53242   1.000
    O145    O    0.72742   0.53182   0.46764   1.000
    O146    O    0.77260   0.46820   0.53236   1.000
    O147    O    0.79606   0.50013   0.41762   1.000
    O148    O    0.70397   0.49989   0.58237   1.000
    Zr149   Zr   0.14260   0.15668   0.25000   1.000
    O150    O    0.15753   0.13371   0.19538   1.000
    O151    O    0.10902   0.18454   0.24375   1.000
    O152    O    0.20145   0.19397   0.25000   1.000
    O153    O    0.15753   0.13371   0.30462   1.000
    Zr154   Zr   0.14260   0.65669   0.25000   1.000
    O155    O    0.15753   0.63371   0.19538   1.000
    O156    O    0.20145   0.69398   0.25000   1.000
    O157    O    0.10902   0.68454   0.24375   1.000
    O158    O    0.15753   0.63372   0.30462   1.000
    Zr159   Zr   0.64260   0.15668   0.25000   1.000
    O160    O    0.65753   0.13370   0.19538   1.000
    O161    O    0.70145   0.19397   0.25000   1.000
    O162    O    0.60902   0.18454   0.24375   1.000
    O163    O    0.65753   0.13371   0.30462   1.000
    Zr164   Zr   0.64260   0.65669   0.25000   1.000
    O165    O    0.65753   0.63371   0.19538   1.000
    O166    O    0.70145   0.69398   0.25000   1.000
    O167    O    0.60902   0.68454   0.24375   1.000
    O168    O    0.65753   0.63371   0.30462   1.000
    Zr169   Zr   0.35742   0.34333   0.75000   1.000
    O170    O    0.34250   0.36631   0.69538   1.000
    O171    O    0.39100   0.31548   0.75000   1.000
    O172    O    0.29858   0.30604   0.75000   1.000
    O173    O    0.34250   0.36631   0.80461   1.000
    Zr174   Zr   0.35742   0.84334   0.75000   1.000
    O175    O    0.34250   0.86631   0.69538   1.000
    O176    O    0.29858   0.80605   0.75000   1.000
    O177    O    0.39100   0.81549   0.75000   1.000
    O178    O    0.34250   0.86632   0.80461   1.000
    Zr179   Zr   0.85742   0.34333   0.75000   1.000
    O180    O    0.79857   0.30604   0.75000   1.000
    O181    O    0.84249   0.36631   0.69538   1.000
    O182    O    0.89100   0.31548   0.75000   1.000
    O183    O    0.84249   0.36631   0.80462   1.000
    Zr184   Zr   0.85742   0.84334   0.75000   1.000
    O185    O    0.84249   0.86631   0.69538   1.000
    O186    O    0.79857   0.80605   0.75000   1.000
    O187    O    0.89100   0.81549   0.75000   1.000
    O188    O    0.84249   0.86631   0.80462   1.000
loop_
    _geom_bond_atom_site_label_1
    _geom_bond_atom_site_label_2
    _geom_bond_distance
    _geom_bond_site_symmetry_2
    _ccdc_geom_bond_type
    Zr55   O56       0.98440      .   S
    N41    O56       1.83336      .   S
    Zr55   O57       1.04476      .   S
    N45    O57       1.92046      .   S
    Zr55   O58       0.98443      .   S
    N21    O58       1.83342      .   S
    Zr55   O59       0.96263      .   S
    N16    O59       1.79646      .   S
    Zr60   O61       0.98440      .   S
    N42    O61       1.83336      .   S
    Zr60   O62       1.04476      .   S
    N46    O62       1.92048      .   S
    Zr60   O63       0.96264      .   S
    N17    O63       1.79647      .   S
    Zr60   O64       0.98443      .   S
    N22    O64       1.83341      .   S
    Zr65   O66       1.03446  1_655   S
    N43    O66       1.92979      .   S
    Zr65   O67       0.99552      .   S
    N18    O67       1.84559      .   S
    Zr65   O68       0.81157  1_655   S
    N39    O68       1.54786      .   S
    Zr69   O70       0.98441  1_655   S
    N40    O70       1.83337      .   S
    Zr69   O71       1.04477  1_655   S
    N44    O71       1.92048      .   S
    Zr69   O72       0.96263      .   S
    N19    O72       1.79646      .   S
    Zr69   O73       0.98444  1_655   S
    N20    O73       1.83342      .   S
    Zr74   O75       0.98463  1_455   S
    N37    O75       1.83359      .   S
    Zr74   O76       1.03100  1_455   S
    N49    O76       1.91303      .   S
    Zr74   O77       0.96263      .   S
    N51    O77       1.79647      .   S
    Zr74   O78       0.98444  1_455   S
    N25    O78       1.83344      .   S
    Zr79   O80       0.98440  1_455   S
    N38    O80       1.83336      .   S
    Zr79   O81       1.03099  1_455   S
    N50    O81       1.91302      .   S
    Zr79   O82       0.96263      .   S
    N52    O82       1.79646      .   S
    Zr79   O83       0.98444  1_455   S
    N26    O83       1.83343      .   S
    Zr84   O85       1.03098      .   S
    N47    O85       1.91301      .   S
    Zr84   O86       0.98444      .   S
    N23    O86       1.83343      .   S
    Zr84   O87       0.98440      .   S
    N35    O87       1.83336      .   S
    Zr84   O88       0.96263      .   S
    N53    O88       1.79646      .   S
    Zr89   O90       0.98440      .   S
    N36    O90       1.83336      .   S
    Zr89   O91       0.96263      .   S
    N54    O91       1.79646      .   S
    Zr89   O92       1.03099      .   S
    N48    O92       1.91302      .   S
    Zr89   O93       0.98444      .   S
    N24    O93       1.83343      .   S
    Zr94   O95       1.01804  1_556   S
    N40    O95       1.88755      .   S
    Zr94   O96       1.01809  1_565   S
    N23    O96       1.88763      .   S
    Zr94   O97       1.01916  1_566   S
    N8     O97       1.88929      .   S
    Zr94   O98       1.01911      .   S
    N28    O98       1.88912      .   S
    Zr94   O99       1.32923      .   S
    N0     O99       2.71807      .   S
    Zr94   O100      1.32915  1_566   S
    N5     O100      2.71773      .   S
    Zr101  O102      1.01915  1_556   S
    N9     O102      1.88928      .   S
    Zr101  O103      1.01924      .   S
    N27    O103      1.88933      .   S
    Zr101  O104      1.01811  1_556   S
    N39    O104      1.88767      .   S
    Zr101  O105      1.01809      .   S
    N24    O105      1.88763      .   S
    Zr101  O106      1.32923      .   S
    N1     O106      2.71806      .   S
    Zr101  O107      1.32917  1_556   S
    N4     O107      2.71776      .   S
    Zr108  O109      1.32911  1_565   S
    N7     O109      2.71766      .   S
    Zr108  O110      1.01916  1_565   S
    N10    O110      1.88928      .   S
    Zr108  O111      1.01802      .   S
    N42    O111      1.88752      .   S
    Zr108  O112      1.01811  1_564   S
    N25    O112      1.88767      .   S
    Zr108  O113      1.01900  1_554   S
    N30    O113      1.88902      .   S
    Zr108  O114      1.32914  1_554   S
    N2     O114      2.71775      .   S
    Zr115  O116      1.01916      .   S
    N11    O116      1.88928      .   S
    Zr115  O117      1.01809      .   S
    N41    O117      1.88763      .   S
    Zr115  O118      1.01811  1_554   S
    N26    O118      1.88767      .   S
    Zr115  O119      1.01913  1_554   S
    N29    O119      1.88922      .   S
    Zr115  O120      1.32913  1_554   S
    N3     O120      2.71771      .   S
    Zr115  O121      1.32912      .   S
    N6     O121      2.71767      .   S
    Zr122  O123      1.01803  1_545   S
    N20    O123      1.88753      .   S
    Zr122  O124      1.01810      .   S
    N35    O124      1.88765      .   S
    Zr122  O125      1.01905  1_545   S
    N13    O125      1.88909      .   S
    Zr122  O126      1.01918      .   S
    N31    O126      1.88930      .   S
    Zr122  O127      1.32927  1_545   S
    N0     O127      2.71813      .   S
    Zr122  O128      1.32913      .   S
    N5     O128      2.71772      .   S
    Zr129  O130      1.01918      .   S
    N12    O130      1.88930      .   S
    Zr129  O131      1.01810      .   S
    N36    O131      1.88765      .   S
    Zr129  O132      1.01917      .   S
    N32    O132      1.88929      .   S
    Zr129  O133      1.32926      .   S
    N1     O133      2.71809      .   S
    Zr129  O134      1.32914      .   S
    N4     O134      2.71772      .   S
    Zr135  O136      1.32921      .   S
    N7     O136      2.71767      .   S
    Zr135  O137      1.01803      .   S
    N37    O137      1.88744      .   S
    Zr135  O138      1.01803  1_545   S
    N22    O138      1.88754      .   S
    Zr135  O139      1.01917      .   S
    N33    O139      1.88930      .   S
    Zr135  O140      1.01905  1_545   S
    N15    O140      1.88909      .   S
    Zr135  O141      1.32913  1_545   S
    N2     O141      2.71770      .   S
    Zr142  O143      1.01810      .   S
    N21    O143      1.88764      .   S
    Zr142  O144      1.01810      .   S
    N38    O144      1.88765      .   S
    Zr142  O145      1.01917      .   S
    N34    O145      1.88930      .   S
    Zr142  O146      1.01917      .   S
    N14    O146      1.88930      .   S
    Zr142  O147      1.32922      .   S
    N6     O147      2.71770      .   S
    Zr142  O148      1.32912      .   S
    N3     O148      2.71770      .   S
    Zr149  O150      0.98468      .   S
    N8     O150      1.83392      .   S
    Zr149  O151      0.96642      .   S
    N43    O151      1.81456      .   S
    Zr149  O152      1.03073      .   S
    N16    O152      1.91264      .   S
    Zr149  O153      0.98466      .   S
    N31    O153      1.83386      .   S
    Zr154  O155      0.98469      .   S
    N9     O155      1.83393      .   S
    Zr154  O156      1.03073      .   S
    N17    O156      1.91263      .   S
    Zr154  O157      0.96641      .   S
    N44    O157      1.81455      .   S
    Zr154  O158      0.98467      .   S
    N32    O158      1.83387      .   S
    Zr159  O160      0.98466      .   S
    N10    O160      1.83385      .   S
    Zr159  O161      1.03073      .   S
    N18    O161      1.91264      .   S
    Zr159  O162      0.96642      .   S
    N45    O162      1.81457      .   S
    Zr159  O163      0.98467      .   S
    N33    O163      1.83387      .   S
    Zr164  O165      0.98466      .   S
    N11    O165      1.83385      .   S
    Zr164  O166      1.03073      .   S
    N19    O166      1.91264      .   S
    Zr164  O167      0.96642      .   S
    N46    O167      1.81456      .   S
    Zr164  O168      0.98467      .   S
    N34    O168      1.83386      .   S
    Zr169  O170      0.98466      .   S
    N12    O170      1.83386      .   S
    Zr169  O171      0.96270      .   S
    N47    O171      1.79672      .   S
    Zr169  O172      1.03073      .   S
    N51    O172      1.91264      .   S
    Zr169  O173      0.98456      .   S
    N27    O173      1.83354      .   S
    Zr174  O175      0.98467      .   S
    N13    O175      1.83386      .   S
    Zr174  O176      1.03073      .   S
    N52    O176      1.91264      .   S
    Zr174  O177      0.96270      .   S
    N48    O177      1.79672      .   S
    Zr174  O178      0.98456      .   S
    N28    O178      1.83355      .   S
    Zr179  O180      1.03073      .   S
    N53    O180      1.91263      .   S
    Zr179  O181      0.98466      .   S
    N14    O181      1.83385      .   S
    Zr179  O182      0.96271      .   S
    N49    O182      1.79672      .   S
    Zr179  O183      0.98467      .   S
    N29    O183      1.83387      .   S
    Zr184  O185      0.98466      .   S
    N15    O185      1.83385      .   S
    Zr184  O186      1.03073      .   S
    N54    O186      1.91264      .   S
    Zr184  O187      0.96270      .   S
    N50    O187      1.79672      .   S
    Zr184  O188      0.98467      .   S
    N30    O188      1.83387      .   S
