# CIF file generated by openbabel 2.4.90, see http://openbabel.sf.net
data_I
_chemical_name_common ''
_cell_length_a 15.74
_cell_length_b 23.167
_cell_length_c 13.534
_cell_angle_alpha 90.001
_cell_angle_beta 90
_cell_angle_gamma 109.791
_space_group_name_H-M_alt 'P 1'
_space_group_name_Hall 'P 1'
loop_
    _symmetry_equiv_pos_as_xyz
    x,y,z
loop_
    _atom_site_label
    _atom_site_type_symbol
    _atom_site_fract_x
    _atom_site_fract_y
    _atom_site_fract_z
    _atom_site_occupancy
    Zr0     Zr   0.14260   0.15668   0.25000   1.000
    Zr1     Zr   0.14260   0.65669   0.25000   1.000
    Zr2     Zr   0.64260   0.15668   0.25000   1.000
    Zr3     Zr   0.64260   0.65669   0.25000   1.000
    Zr4     Zr   0.35742   0.34333   0.75000   1.000
    Zr5     Zr   0.35742   0.84334   0.75000   1.000
    Zr6     Zr   0.85742   0.34333   0.75000   1.000
    Zr7     Zr   0.85742   0.84334   0.75000   1.000
    Zr8     Zr   0.48594   0.34403   0.24999   1.000
    Zr9     Zr   0.48594   0.84404   0.24999   1.000
    Zr10    Zr   0.98594   0.34403   0.20000   1.000
    Zr11    Zr   0.98594   0.84404   0.24999   1.000
    Zr12    Zr   0.01409   0.15598   0.75000   1.000
    Zr13    Zr   0.01409   0.65599   0.75000   1.000
    Zr14    Zr   0.51408   0.15598   0.75000   1.000
    Zr15    Zr   0.51408   0.65599   0.75000   1.000
    Zr16    Zr   0.25001   1.00000   0.99999   1.000
    Zr17    Zr   0.25001   0.50001   0.99999   1.000
    Zr18    Zr   0.75001   1.00000   0.00000   1.000
    Zr19    Zr   0.75001   0.50001   0.00000   1.000
    Zr20    Zr   0.25001   0.00000   0.50000   1.000
    Zr21    Zr   0.25001   0.50001   0.50000   1.000
    Zr22    Zr   0.75001   0.00000   0.50000   1.000
    Zr23    Zr   0.75001   0.50001   0.50000   1.000
    N24     N    0.10873   0.99966   0.75000   1.000
    O25     O    0.15789   0.99976   0.83526   1.000
    O26     O    0.15789   0.99976   0.66474   1.000
    N27     N    0.10873   0.49966   0.75000   1.000
    O28     O    0.15789   0.49977   0.83526   1.000
    O29     O    0.15789   0.49977   0.66474   1.000
    N30     N    0.60879   0.99966   0.75000   1.000
    O31     O    0.65793   0.99976   0.83526   1.000
    O32     O    0.65793   0.99976   0.66474   1.000
    N33     N    0.60879   0.49966   0.75000   1.000
    O34     O    0.65793   0.49977   0.83526   1.000
    O35     O    0.65793   0.49977   0.66474   1.000
    N36     N    0.39123   0.50036   0.25000   1.000
    O37     O    0.34210   0.50025   0.33526   1.000
    O38     O    0.34210   0.50025   0.16473   1.000
    N39     N    0.39123   0.00036   0.25000   1.000
    O40     O    0.34210   0.00025   0.33526   1.000
    O41     O    0.34210   0.00025   0.16473   1.000
    N42     N    0.89123   0.50036   0.24999   1.000
    O43     O    0.84210   0.50025   0.33525   1.000
    O44     O    0.84210   0.50025   0.16473   1.000
    N45     N    0.89123   0.00036   0.25000   1.000
    O46     O    0.84210   0.00025   0.33525   1.000
    O47     O    0.84210   0.00025   0.16474   1.000
    N48     N    0.18609   0.09012   0.09531   1.000
    O49     O    0.17246   0.11073   0.14076   1.000
    O50     O    0.20483   0.06362   0.06470   1.000
    N51     N    0.18609   0.59013   0.09531   1.000
    O52     O    0.17246   0.61074   0.14076   1.000
    O53     O    0.20483   0.56363   0.06470   1.000
    N54     N    0.68609   0.09012   0.09532   1.000
    O55     O    0.67245   0.11073   0.14076   1.000
    O56     O    0.70483   0.06362   0.06471   1.000
    N57     N    0.68609   0.59013   0.09532   1.000
    O58     O    0.67246   0.61074   0.14076   1.000
    O59     O    0.70483   0.56363   0.06471   1.000
    N60     N    0.31393   0.40989   0.59532   1.000
    O61     O    0.32757   0.38928   0.64076   1.000
    O62     O    0.29519   0.43639   0.56471   1.000
    N63     N    0.31393   0.90990   0.59532   1.000
    O64     O    0.32757   0.88929   0.64076   1.000
    O65     O    0.29519   0.93639   0.56471   1.000
    N66     N    0.81393   0.40989   0.59532   1.000
    O67     O    0.82757   0.38928   0.64076   1.000
    O68     O    0.79519   0.43639   0.56471   1.000
    N69     N    0.81393   0.90990   0.59532   1.000
    O70     O    0.82757   0.88929   0.64076   1.000
    O71     O    0.79519   0.93639   0.56471   1.000
    N72     N    0.31096   0.26292   0.25000   1.000
    O73     O    0.26030   0.23126   0.25000   1.000
    O74     O    0.36328   0.28830   0.25000   1.000
    N75     N    0.31096   0.76293   0.25000   1.000
    O76     O    0.26030   0.73127   0.25000   1.000
    O77     O    0.36328   0.78831   0.25000   1.000
    N78     N    0.81096   0.26292   0.25000   1.000
    O79     O    0.76029   0.23126   0.25000   1.000
    O80     O    0.86327   0.28830   0.23750   1.000
    N81     N    0.81096   0.76293   0.25000   1.000
    O82     O    0.76029   0.73127   0.25000   1.000
    O83     O    0.86327   0.78831   0.25000   1.000
    N84     N    0.09616   0.41034   0.40453   1.000
    O85     O    0.14138   0.43672   0.43516   1.000
    N86     N    0.09616   0.91035   0.40453   1.000
    O87     O    0.06185   0.88981   0.35914   1.000
    O88     O    0.14138   0.93672   0.43516   1.000
    N89     N    0.59616   0.41034   0.40453   1.000
    O90     O    0.56185   0.38981   0.35914   1.000
    O91     O    0.64138   0.43672   0.43516   1.000
    N92     N    0.59616   0.91035   0.40453   1.000
    O93     O    0.56185   0.88981   0.35914   1.000
    O94     O    0.64138   0.93672   0.43516   1.000
    N95     N    0.40386   0.08967   0.90454   1.000
    O96     O    0.43817   0.11021   0.85915   1.000
    O97     O    0.35865   0.06329   0.93516   1.000
    N98     N    0.40386   0.58968   0.90454   1.000
    O99     O    0.43817   0.61022   0.85915   1.000
    O100    O    0.35865   0.56330   0.93516   1.000
    N101    N    0.90386   0.08967   0.90454   1.000
    O102    O    0.93817   0.11021   0.85915   1.000
    O103    O    0.85865   0.06329   0.93516   1.000
    N104    N    0.90387   0.58968   0.90454   1.000
    O105    O    0.93817   0.61022   0.85915   1.000
    O106    O    0.85865   0.56330   0.93516   1.000
    N107    N    0.31393   0.40989   0.90464   1.000
    O108    O    0.32757   0.38928   0.85921   1.000
    O109    O    0.29519   0.43639   0.93524   1.000
    N110    N    0.31393   0.90990   0.90464   1.000
    O111    O    0.32757   0.88929   0.85921   1.000
    O112    O    0.29519   0.93640   0.93524   1.000
    N113    N    0.81393   0.40989   0.90468   1.000
    O114    O    0.82757   0.38928   0.85924   1.000
    O115    O    0.79519   0.43639   0.93529   1.000
    N116    N    0.81393   0.90990   0.90468   1.000
    O117    O    0.82757   0.88929   0.85924   1.000
    O118    O    0.79519   0.93639   0.93529   1.000
    N119    N    0.18609   0.09012   0.40468   1.000
    O120    O    0.17246   0.11073   0.35923   1.000
    O121    O    0.20483   0.06362   0.43528   1.000
    N122    N    0.18609   0.59013   0.40468   1.000
    O123    O    0.17246   0.61074   0.35923   1.000
    O124    O    0.20483   0.56363   0.43528   1.000
    N125    N    0.68609   0.09012   0.40468   1.000
    O126    O    0.67246   0.11073   0.35923   1.000
    O127    O    0.70483   0.06362   0.43528   1.000
    N128    N    0.68609   0.59013   0.40468   1.000
    O129    O    0.67246   0.61074   0.35923   1.000
    O130    O    0.70483   0.56363   0.43528   1.000
    N131    N    0.40386   0.08967   0.59546   1.000
    O132    O    0.43817   0.11021   0.64085   1.000
    O133    O    0.35865   0.06329   0.56484   1.000
    N134    N    0.40386   0.58968   0.59546   1.000
    O135    O    0.43817   0.61021   0.64085   1.000
    O136    O    0.35865   0.56330   0.56484   1.000
    N137    N    0.90386   0.08967   0.59542   1.000
    O138    O    0.93817   0.11021   0.64081   1.000
    O139    O    0.85865   0.06329   0.56482   1.000
    N140    N    0.90386   0.58968   0.59546   1.000
    O141    O    0.93817   0.61022   0.64085   1.000
    O142    O    0.85865   0.56330   0.56484   1.000
    N143    N    0.09616   0.41034   0.09545   1.000
    O144    O    0.06185   0.38980   0.12835   1.000
    O145    O    0.14137   0.43672   0.06483   1.000
    N146    N    0.09616   0.91035   0.09545   1.000
    O147    O    0.06185   0.88981   0.14084   1.000
    O148    O    0.14137   0.93672   0.06483   1.000
    N149    N    0.59616   0.41034   0.09545   1.000
    O150    O    0.56185   0.38980   0.14084   1.000
    O151    O    0.64137   0.43672   0.06483   1.000
    N152    N    0.59616   0.91035   0.09545   1.000
    O153    O    0.56185   0.88981   0.14084   1.000
    O154    O    0.64137   0.93672   0.06483   1.000
    N155    N    0.04835   0.23774   0.22500   1.000
    O156    O    0.07544   0.21239   0.23750   1.000
    O157    O    0.02921   0.26939   0.21250   1.000
    N158    N    0.04835   0.73774   0.22500   1.000
    O159    O    0.07544   0.71240   0.23750   1.000
    O160    O    0.02921   0.76940   0.22500   1.000
    N161    N    0.54834   0.23774   0.22500   1.000
    O162    O    0.57544   0.21239   0.23750   1.000
    O163    O    0.52921   0.26939   0.22500   1.000
    N164    N    0.54834   0.73774   0.22500   1.000
    O165    O    0.57544   0.71240   0.23750   1.000
    O166    O    0.52921   0.76940   0.22500   1.000
    N167    N    0.45168   0.26228   0.75000   1.000
    O168    O    0.42458   0.28762   0.75000   1.000
    O169    O    0.47081   0.23062   0.75000   1.000
    N170    N    0.45168   0.76229   0.75000   1.000
    O171    O    0.42458   0.78763   0.75000   1.000
    O172    O    0.47081   0.73063   0.75000   1.000
    N173    N    0.95168   0.26228   0.75000   1.000
    O174    O    0.92458   0.28762   0.75000   1.000
    O175    O    0.97081   0.23062   0.75000   1.000
    N176    N    0.95168   0.76229   0.75000   1.000
    O177    O    0.92458   0.78763   0.75000   1.000
    O178    O    0.97081   0.73063   0.75000   1.000
    N179    N    0.18907   0.23709   0.75000   1.000
    O180    O    0.13675   0.21171   0.75000   1.000
    O181    O    0.23973   0.26875   0.75000   1.000
    N182    N    0.18907   0.73710   0.75000   1.000
    O183    O    0.13675   0.71172   0.75000   1.000
    O184    O    0.23973   0.76876   0.75000   1.000
    N185    N    0.68906   0.23709   0.75000   1.000
    O186    O    0.63675   0.21171   0.75000   1.000
    O187    O    0.73973   0.26875   0.75000   1.000
    N188    N    0.68907   0.73710   0.75000   1.000
    O189    O    0.63675   0.71172   0.75000   1.000
    O190    O    0.73973   0.76876   0.75000   1.000
loop_
    _geom_bond_atom_site_label_1
    _geom_bond_atom_site_label_2
    _geom_bond_distance
    _geom_bond_site_symmetry_2
    _ccdc_geom_bond_type
    N24    O25       1.38891      .   S
    Zr16   O25       2.65846      .   S
    N24    O26       1.38893      .   S
    Zr20   O26       2.65854  1_545   S
    N27    O28       1.38890      .   S
    Zr17   O28       2.65846      .   S
    N27    O29       1.38890      .   S
    Zr21   O29       2.65851      .   S
    N30    O31       1.38867      .   S
    Zr18   O31       2.65829  1_554   S
    N30    O32       1.38864      .   S
    Zr22   O32       2.65826  1_545   S
    N33    O34       1.38865      .   S
    Zr19   O34       2.65826  1_554   S
    N33    O35       1.38864      .   S
    Zr23   O35       2.65825      .   S
    N36    O37       1.38865      .   S
    Zr21   O37       2.65827      .   S
    N36    O38       1.38866      .   S
    Zr17   O38       2.65834  1_556   S
    N39    O40       1.38865      .   S
    Zr20   O40       2.65827      .   S
    N39    O41       1.38864      .   S
    Zr16   O41       2.65831  1_566   S
    N42    O43       1.38855      .   S
    Zr23   O43       2.65845      .   S
    N42    O44       1.38862      .   S
    Zr19   O44       2.65824      .   S
    N45    O46       1.38852      .   S
    Zr22   O46       2.65842      .   S
    N45    O47       1.38861      .   S
    Zr18   O47       2.65823  1_565   S
    N48    O49       0.84959      .   S
    Zr0    O49       1.96937      .   S
    N48    O50       0.87076      .   S
    Zr16   O50       2.03832  1_566   S
    N51    O52       0.84960      .   S
    Zr1    O52       1.96938      .   S
    N51    O53       0.87076      .   S
    Zr17   O53       2.03831  1_556   S
    N54    O55       0.84955      .   S
    Zr2    O55       1.96932      .   S
    N54    O56       0.87074      .   S
    Zr18   O56       2.03833  1_565   S
    N57    O58       0.84955      .   S
    Zr3    O58       1.96932      .   S
    N57    O59       0.87074      .   S
    Zr19   O59       2.03832      .   S
    N60    O61       0.84955      .   S
    Zr4    O61       1.96933      .   S
    N60    O62       0.87075      .   S
    Zr21   O62       2.03835      .   S
    N63    O64       0.84955      .   S
    Zr5    O64       1.96933      .   S
    N63    O65       0.87067      .   S
    Zr20   O65       2.03810  1_545   S
    N66    O67       0.84955      .   S
    Zr6    O67       1.96932      .   S
    N66    O68       0.87075      .   S
    Zr23   O68       2.03835      .   S
    N69    O70       0.84955      .   S
    Zr7    O70       1.96932      .   S
    N69    O71       0.87067      .   S
    Zr22   O71       2.03810  1_545   S
    N72    O73       0.88193      .   S
    Zr0    O73       2.06146      .   S
    N72    O74       0.83423      .   S
    Zr8    O74       1.92526      .   S
    N75    O76       0.88193      .   S
    Zr1    O76       2.06146      .   S
    N75    O77       0.83423      .   S
    Zr9    O77       1.92527      .   S
    N78    O79       0.88193      .   S
    Zr2    O79       2.06146      .   S
    N78    O80       0.85122      .   S
    Zr10   O80       1.99105      .   S
    N81    O82       0.88193      .   S
    Zr3    O82       2.06146      .   S
    N81    O83       0.83423      .   S
    Zr11   O83       1.92526      .   S
    N84    O85       0.87015      .   S
    Zr21   O85       2.03620      .   S
    N86    O87       0.84935      .   S
    Zr11   O87       1.96887  1_655   S
    N86    O88       0.87011      .   S
    Zr20   O88       2.03606  1_545   S
    N89    O90       0.84935      .   S
    Zr8    O90       1.96887      .   S
    N89    O91       0.87015      .   S
    Zr23   O91       2.03619      .   S
    N92    O93       0.84935      .   S
    Zr9    O93       1.96886      .   S
    N92    O94       0.87011      .   S
    Zr22   O94       2.03606  1_545   S
    N95    O96       0.84936      .   S
    Zr14   O96       1.96888      .   S
    N95    O97       0.87015      .   S
    Zr16   O97       2.03618  1_565   S
    N98    O99       0.84936      .   S
    Zr15   O99       1.96888      .   S
    N98    O100      0.87015      .   S
    Zr17   O100      2.03618      .   S
    N101   O102      0.84936      .   S
    Zr12   O102      1.96889  1_455   S
    N101   O103      0.87016      .   S
    Zr18   O103      2.03622  1_564   S
    N104   O105      0.84936      .   S
    Zr13   O105      1.96888  1_455   S
    N104   O106      0.87017      .   S
    Zr19   O106      2.03623  1_554   S
    N107   O108      0.84935      .   S
    Zr4    O108      1.96911      .   S
    N107   O109      0.87071      .   S
    Zr17   O109      2.03848      .   S
    N110   O111      0.84935      .   S
    Zr5    O111      1.96912      .   S
    N110   O112      0.87063      .   S
    Zr16   O112      2.03822      .   S
    N113   O114      0.84957      .   S
    Zr6    O114      1.96933      .   S
    N113   O115      0.87072      .   S
    Zr19   O115      2.03825  1_554   S
    N116   O117      0.84957      .   S
    Zr7    O117      1.96933      .   S
    N116   O118      0.87064      .   S
    Zr18   O118      2.03800  1_554   S
    N119   O120      0.84955      .   S
    Zr0    O120      1.96933      .   S
    N119   O121      0.87075      .   S
    Zr20   O121      2.03835      .   S
    N122   O123      0.84956      .   S
    Zr1    O123      1.96934      .   S
    N122   O124      0.87075      .   S
    Zr21   O124      2.03834      .   S
    N125   O126      0.84956      .   S
    Zr2    O126      1.96934      .   S
    N125   O127      0.87075      .   S
    Zr22   O127      2.03835      .   S
    N128   O129      0.84956      .   S
    Zr3    O129      1.96933      .   S
    N128   O130      0.87075      .   S
    Zr23   O130      2.03835      .   S
    N131   O132      0.84933      .   S
    Zr14   O132      1.96879      .   S
    N131   O133      0.87016      .   S
    Zr20   O133      2.03620      .   S
    N134   O135      0.84933      .   S
    Zr15   O135      1.96879      .   S
    N134   O136      0.87016      .   S
    Zr21   O136      2.03620      .   S
    N137   O138      0.84933      .   S
    Zr12   O138      1.96926  1_455   S
    N137   O139      0.87001      .   S
    Zr22   O139      2.03607      .   S
    N140   O141      0.84933      .   S
    Zr13   O141      1.96880  1_455   S
    N140   O142      0.87016      .   S
    Zr23   O142      2.03620      .   S
    N143   O144      0.73632      .   S
    Zr10   O144      1.62313  1_655   S
    N143   O145      0.87017      .   S
    Zr17   O145      2.03621  1_556   S
    N146   O147      0.84933      .   S
    Zr11   O147      1.96881  1_655   S
    N146   O148      0.87012      .   S
    Zr16   O148      2.03608  1_556   S
    N149   O150      0.84933      .   S
    Zr8    O150      1.96880      .   S
    N149   O151      0.87015      .   S
    Zr19   O151      2.03617      .   S
    N152   O153      0.84933      .   S
    Zr9    O153      1.96880      .   S
    N152   O154      0.87010      .   S
    Zr18   O154      2.03604      .   S
    N155   O156      0.85137      .   S
    Zr0    O156      1.93284      .   S
    N155   O157      0.89815      .   S
    Zr10   O157      2.06892  1_655   S
    N158   O159      0.85137      .   S
    Zr1    O159      1.93282      .   S
    N158   O160      0.88206      .   S
    Zr11   O160      2.08953  1_655   S
    N161   O162      0.85138      .   S
    Zr2    O162      1.93284      .   S
    N161   O163      0.88206      .   S
    Zr8    O163      2.08951      .   S
    N164   O165      0.85138      .   S
    Zr3    O165      1.93284      .   S
    N164   O166      0.88206      .   S
    Zr9    O166      2.08953      .   S
    N167   O168      0.83439      .   S
    Zr4    O168      1.92541      .   S
    N167   O169      0.88206      .   S
    Zr14   O169      2.06196      .   S
    N170   O171      0.83439      .   S
    Zr5    O171      1.92540      .   S
    N170   O172      0.88206      .   S
    Zr15   O172      2.06198      .   S
    N173   O174      0.83439      .   S
    Zr6    O174      1.92542      .   S
    N173   O175      0.88206      .   S
    Zr12   O175      2.06199  1_455   S
    N176   O177      0.83439      .   S
    Zr7    O177      1.92541      .   S
    N176   O178      0.88206      .   S
    Zr13   O178      2.06198  1_455   S
    N179   O180      0.83423      .   S
    Zr12   O180      1.92527      .   S
    N179   O181      0.88193      .   S
    Zr4    O181      2.06146      .   S
    N182   O183      0.83423      .   S
    Zr13   O183      1.92526      .   S
    N182   O184      0.88193      .   S
    Zr5    O184      2.06146      .   S
    N185   O186      0.83423      .   S
    Zr14   O186      1.92525      .   S
    N185   O187      0.88193      .   S
    Zr6    O187      2.06146      .   S
    N188   O189      0.83423      .   S
    Zr15   O189      1.92526      .   S
    N188   O190      0.88193      .   S
    Zr7    O190      2.06147      .   S
