# CIF file generated by openbabel 2.4.90, see http://openbabel.sf.net
data_I
_chemical_name_common ''
_cell_length_a 15.74
_cell_length_b 23.167
_cell_length_c 13.534
_cell_angle_alpha 90.001
_cell_angle_beta 90
_cell_angle_gamma 109.791
_space_group_name_H-M_alt 'P 1'
_space_group_name_Hall 'P 1'
loop_
    _symmetry_equiv_pos_as_xyz
    x,y,z
loop_
    _atom_site_label
    _atom_site_type_symbol
    _atom_site_fract_x
    _atom_site_fract_y
    _atom_site_fract_z
    _atom_site_occupancy
    N0      N    0.10873   0.99966   0.75000   1.000
    N1      N    0.10873   0.49966   0.75000   1.000
    N2      N    0.60879   0.99966   0.75000   1.000
    N3      N    0.60879   0.49966   0.75000   1.000
    N4      N    0.39123   0.50036   0.25000   1.000
    N5      N    0.39123   0.00036   0.25000   1.000
    N6      N    0.89123   0.50036   0.24999   1.000
    N7      N    0.89123   0.00036   0.25000   1.000
    N8      N    0.18609   0.09012   0.09531   1.000
    N9      N    0.18609   0.59013   0.09531   1.000
    N10     N    0.68609   0.09012   0.09532   1.000
    N11     N    0.68609   0.59013   0.09532   1.000
    N12     N    0.31393   0.40989   0.59532   1.000
    N13     N    0.31393   0.90990   0.59532   1.000
    N14     N    0.81393   0.40989   0.59532   1.000
    N15     N    0.81393   0.90990   0.59532   1.000
    N16     N    0.31096   0.26292   0.25000   1.000
    N17     N    0.31096   0.76293   0.25000   1.000
    N18     N    0.81096   0.26292   0.25000   1.000
    N19     N    0.81096   0.76293   0.25000   1.000
    N20     N    0.09616   0.41034   0.40453   1.000
    N21     N    0.09616   0.91035   0.40453   1.000
    N22     N    0.59616   0.41034   0.40453   1.000
    N23     N    0.59616   0.91035   0.40453   1.000
    N24     N    0.40386   0.08967   0.90454   1.000
    N25     N    0.40386   0.58968   0.90454   1.000
    N26     N    0.90386   0.08967   0.90454   1.000
    N27     N    0.90387   0.58968   0.90454   1.000
    N28     N    0.31393   0.40989   0.90464   1.000
    N29     N    0.31393   0.90990   0.90464   1.000
    N30     N    0.81393   0.40989   0.90468   1.000
    N31     N    0.81393   0.90990   0.90468   1.000
    N32     N    0.18609   0.09012   0.40468   1.000
    N33     N    0.18609   0.59013   0.40468   1.000
    N34     N    0.68609   0.09012   0.40468   1.000
    N35     N    0.68609   0.59013   0.40468   1.000
    N36     N    0.40386   0.08967   0.59546   1.000
    N37     N    0.40386   0.58968   0.59546   1.000
    N38     N    0.90386   0.08967   0.59542   1.000
    N39     N    0.90386   0.58968   0.59546   1.000
    N40     N    0.09616   0.41034   0.09545   1.000
    N41     N    0.09616   0.91035   0.09545   1.000
    N42     N    0.59616   0.41034   0.09545   1.000
    N43     N    0.59616   0.91035   0.09545   1.000
    N44     N    0.04835   0.23774   0.22500   1.000
    N45     N    0.04835   0.73774   0.22500   1.000
    N46     N    0.54834   0.23774   0.22500   1.000
    N47     N    0.54834   0.73774   0.22500   1.000
    N48     N    0.45168   0.26228   0.75000   1.000
    N49     N    0.45168   0.76229   0.75000   1.000
    N50     N    0.95168   0.26228   0.75000   1.000
    N51     N    0.95168   0.76229   0.75000   1.000
    N52     N    0.18907   0.23709   0.75000   1.000
    N53     N    0.18907   0.73710   0.75000   1.000
    N54     N    0.68906   0.23709   0.75000   1.000
    N55     N    0.68907   0.73710   0.75000   1.000
    Zr56    Zr   0.48594   0.34403   0.24999   1.000
    O57     O    0.52389   0.36692   0.19542   1.000
    O58     O    0.50758   0.30671   0.23749   1.000
    O59     O    0.52390   0.36692   0.30457   1.000
    O60     O    0.42461   0.31617   0.24999   1.000
    Zr61    Zr   0.48594   0.84404   0.24999   1.000
    O62     O    0.52389   0.86693   0.19542   1.000
    O63     O    0.50758   0.80672   0.23749   1.000
    O64     O    0.42461   0.81617   0.24999   1.000
    O65     O    0.52390   0.86693   0.30457   1.000
    Zr66    Zr   0.98594   0.34403   0.20000   1.000
    O67     O    0.00757   0.30671   0.20625   1.000
    O68     O    0.92461   0.31617   0.21875   1.000
    O69     O    0.02389   0.36692   0.16417   1.000
    Zr70    Zr   0.98594   0.84404   0.24999   1.000
    O71     O    0.02389   0.86693   0.19542   1.000
    O72     O    0.00757   0.80672   0.23749   1.000
    O73     O    0.92461   0.81617   0.24999   1.000
    O74     O    0.02389   0.86693   0.30457   1.000
    Zr75    Zr   0.01409   0.15598   0.75000   1.000
    O76     O    0.97613   0.13309   0.69540   1.000
    O77     O    0.99245   0.19330   0.75000   1.000
    O78     O    0.07542   0.18385   0.75000   1.000
    O79     O    0.97613   0.13309   0.80458   1.000
    Zr80    Zr   0.01409   0.65599   0.75000   1.000
    O81     O    0.97613   0.63310   0.69543   1.000
    O82     O    0.99245   0.69331   0.75000   1.000
    O83     O    0.07542   0.68386   0.75000   1.000
    O84     O    0.97613   0.63310   0.80458   1.000
    Zr85    Zr   0.51408   0.15598   0.75000   1.000
    O86     O    0.49245   0.19330   0.75000   1.000
    O87     O    0.47613   0.13309   0.80458   1.000
    O88     O    0.47613   0.13309   0.69543   1.000
    O89     O    0.57541   0.18385   0.75000   1.000
    Zr90    Zr   0.51408   0.65599   0.75000   1.000
    O91     O    0.47613   0.63310   0.69543   1.000
    O92     O    0.57542   0.68385   0.75000   1.000
    O93     O    0.49245   0.69331   0.75000   1.000
    O94     O    0.47613   0.63310   0.80458   1.000
    Zr95    Zr   0.25001   1.00000   0.99999   1.000
    O96     O    0.19569   0.96836   0.03241   1.000
    O97     O    0.30433   0.03165   0.96758   1.000
    O98     O    0.22742   0.03181   0.03235   1.000
    O99     O    0.27260   0.96820   0.96762   1.000
    O100    O    0.20395   0.99988   0.91762   1.000
    O101    O    0.29605   0.00012   0.08236   1.000
    Zr102   Zr   0.25001   0.50001   0.99999   1.000
    O103    O    0.22742   0.53182   0.03235   1.000
    O104    O    0.27260   0.46820   0.96762   1.000
    O105    O    0.19569   0.46836   0.03241   1.000
    O106    O    0.30433   0.53166   0.96758   1.000
    O107    O    0.20395   0.49989   0.91762   1.000
    O108    O    0.29605   0.50013   0.08236   1.000
    Zr109   Zr   0.75001   1.00000   0.00000   1.000
    O110    O    0.79606   0.00012   0.08237   1.000
    O111    O    0.72742   0.03181   0.03236   1.000
    O112    O    0.69569   0.96836   0.03242   1.000
    O113    O    0.80433   0.03165   0.96758   1.000
    O114    O    0.77260   0.96820   0.96764   1.000
    O115    O    0.70397   0.99988   0.91763   1.000
    Zr116   Zr   0.75001   0.50001   0.00000   1.000
    O117    O    0.72742   0.53182   0.03236   1.000
    O118    O    0.69569   0.46836   0.03242   1.000
    O119    O    0.80433   0.53166   0.96758   1.000
    O120    O    0.77260   0.46820   0.96764   1.000
    O121    O    0.70397   0.49989   0.91763   1.000
    O122    O    0.79606   0.50013   0.08237   1.000
    Zr123   Zr   0.25001   0.00000   0.50000   1.000
    O124    O    0.19569   0.96836   0.46758   1.000
    O125    O    0.30433   0.03165   0.53242   1.000
    O126    O    0.27260   0.96820   0.53236   1.000
    O127    O    0.22742   0.03181   0.46764   1.000
    O128    O    0.20395   0.99988   0.58237   1.000
    O129    O    0.29605   0.00012   0.41763   1.000
    Zr130   Zr   0.25001   0.50001   0.50000   1.000
    O131    O    0.27260   0.46820   0.53236   1.000
    O132    O    0.19569   0.46836   0.46758   1.000
    O133    O    0.30433   0.53166   0.53242   1.000
    O134    O    0.22742   0.53182   0.46764   1.000
    O135    O    0.20395   0.49989   0.58237   1.000
    O136    O    0.29605   0.50013   0.41763   1.000
    Zr137   Zr   0.75001   0.00000   0.50000   1.000
    O138    O    0.79606   0.00012   0.41762   1.000
    O139    O    0.80433   0.03165   0.53241   1.000
    O140    O    0.69569   0.96836   0.46758   1.000
    O141    O    0.72742   0.03181   0.46764   1.000
    O142    O    0.77260   0.96820   0.53236   1.000
    O143    O    0.70397   0.99988   0.58237   1.000
    Zr144   Zr   0.75001   0.50001   0.50000   1.000
    O145    O    0.69569   0.46836   0.46758   1.000
    O146    O    0.80433   0.53166   0.53242   1.000
    O147    O    0.72742   0.53182   0.46764   1.000
    O148    O    0.77260   0.46820   0.53236   1.000
    O149    O    0.79606   0.50013   0.41762   1.000
    O150    O    0.70397   0.49989   0.58237   1.000
    Zr151   Zr   0.14260   0.15668   0.25000   1.000
    O152    O    0.15753   0.13371   0.19538   1.000
    O153    O    0.10902   0.18454   0.24375   1.000
    O154    O    0.20145   0.19397   0.25000   1.000
    O155    O    0.15753   0.13371   0.30462   1.000
    Zr156   Zr   0.14260   0.65669   0.25000   1.000
    O157    O    0.15753   0.63371   0.19538   1.000
    O158    O    0.20145   0.69398   0.25000   1.000
    O159    O    0.10902   0.68454   0.24375   1.000
    O160    O    0.15753   0.63372   0.30462   1.000
    Zr161   Zr   0.64260   0.15668   0.25000   1.000
    O162    O    0.65753   0.13370   0.19538   1.000
    O163    O    0.70145   0.19397   0.25000   1.000
    O164    O    0.60902   0.18454   0.24375   1.000
    O165    O    0.65753   0.13371   0.30462   1.000
    Zr166   Zr   0.64260   0.65669   0.25000   1.000
    O167    O    0.65753   0.63371   0.19538   1.000
    O168    O    0.70145   0.69398   0.25000   1.000
    O169    O    0.60902   0.68454   0.24375   1.000
    O170    O    0.65753   0.63371   0.30462   1.000
    Zr171   Zr   0.35742   0.34333   0.75000   1.000
    O172    O    0.34250   0.36631   0.69538   1.000
    O173    O    0.39100   0.31548   0.75000   1.000
    O174    O    0.29858   0.30604   0.75000   1.000
    O175    O    0.34250   0.36631   0.80461   1.000
    Zr176   Zr   0.35742   0.84334   0.75000   1.000
    O177    O    0.34250   0.86631   0.69538   1.000
    O178    O    0.29858   0.80605   0.75000   1.000
    O179    O    0.39100   0.81549   0.75000   1.000
    O180    O    0.34250   0.86632   0.80461   1.000
    Zr181   Zr   0.85742   0.34333   0.75000   1.000
    O182    O    0.79857   0.30604   0.75000   1.000
    O183    O    0.84249   0.36631   0.69538   1.000
    O184    O    0.89100   0.31548   0.75000   1.000
    O185    O    0.84249   0.36631   0.80462   1.000
    Zr186   Zr   0.85742   0.84334   0.75000   1.000
    O187    O    0.84249   0.86631   0.69538   1.000
    O188    O    0.79857   0.80605   0.75000   1.000
    O189    O    0.89100   0.81549   0.75000   1.000
    O190    O    0.84249   0.86631   0.80462   1.000
loop_
    _geom_bond_atom_site_label_1
    _geom_bond_atom_site_label_2
    _geom_bond_distance
    _geom_bond_site_symmetry_2
    _ccdc_geom_bond_type
    Zr56   O57       0.98440      .   S
    N42    O57       1.83336      .   S
    Zr56   O58       1.04476      .   S
    N46    O58       1.92046      .   S
    Zr56   O59       0.98443      .   S
    N22    O59       1.83342      .   S
    Zr56   O60       0.96263      .   S
    N16    O60       1.79646      .   S
    Zr61   O62       0.98440      .   S
    N43    O62       1.83336      .   S
    Zr61   O63       1.04476      .   S
    N47    O63       1.92048      .   S
    Zr61   O64       0.96264      .   S
    N17    O64       1.79647      .   S
    Zr61   O65       0.98443      .   S
    N23    O65       1.83341      .   S
    Zr66   O67       1.03446  1_655   S
    N44    O67       1.92979      .   S
    Zr66   O68       0.99552      .   S
    N18    O68       1.84559      .   S
    Zr66   O69       0.81157  1_655   S
    N40    O69       1.54786      .   S
    Zr70   O71       0.98441  1_655   S
    N41    O71       1.83337      .   S
    Zr70   O72       1.04477  1_655   S
    N45    O72       1.92048      .   S
    Zr70   O73       0.96263      .   S
    N19    O73       1.79646      .   S
    Zr70   O74       0.98444  1_655   S
    N21    O74       1.83342      .   S
    Zr75   O76       0.98463  1_455   S
    N38    O76       1.83359      .   S
    Zr75   O77       1.03100  1_455   S
    N50    O77       1.91303      .   S
    Zr75   O78       0.96263      .   S
    N52    O78       1.79647      .   S
    Zr75   O79       0.98444  1_455   S
    N26    O79       1.83344      .   S
    Zr80   O81       0.98440  1_455   S
    N39    O81       1.83336      .   S
    Zr80   O82       1.03099  1_455   S
    N51    O82       1.91302      .   S
    Zr80   O83       0.96263      .   S
    N53    O83       1.79646      .   S
    Zr80   O84       0.98444  1_455   S
    N27    O84       1.83343      .   S
    Zr85   O86       1.03098      .   S
    N48    O86       1.91301      .   S
    Zr85   O87       0.98444      .   S
    N24    O87       1.83343      .   S
    Zr85   O88       0.98440      .   S
    N36    O88       1.83336      .   S
    Zr85   O89       0.96263      .   S
    N54    O89       1.79646      .   S
    Zr90   O91       0.98440      .   S
    N37    O91       1.83336      .   S
    Zr90   O92       0.96263      .   S
    N55    O92       1.79646      .   S
    Zr90   O93       1.03099      .   S
    N49    O93       1.91302      .   S
    Zr90   O94       0.98444      .   S
    N25    O94       1.83343      .   S
    Zr95   O96       1.01804  1_556   S
    N41    O96       1.88755      .   S
    Zr95   O97       1.01809  1_565   S
    N24    O97       1.88763      .   S
    Zr95   O98       1.01916  1_566   S
    N8     O98       1.88929      .   S
    Zr95   O99       1.01911      .   S
    N29    O99       1.88912      .   S
    Zr95   O100      1.32923      .   S
    N0     O100      2.71807      .   S
    Zr95   O101      1.32915  1_566   S
    N5     O101      2.71773      .   S
    Zr102  O103      1.01915  1_556   S
    N9     O103      1.88928      .   S
    Zr102  O104      1.01924      .   S
    N28    O104      1.88933      .   S
    Zr102  O105      1.01811  1_556   S
    N40    O105      1.88767      .   S
    Zr102  O106      1.01809      .   S
    N25    O106      1.88763      .   S
    Zr102  O107      1.32923      .   S
    N1     O107      2.71806      .   S
    Zr102  O108      1.32917  1_556   S
    N4     O108      2.71776      .   S
    Zr109  O110      1.32911  1_565   S
    N7     O110      2.71766      .   S
    Zr109  O111      1.01916  1_565   S
    N10    O111      1.88928      .   S
    Zr109  O112      1.01802      .   S
    N43    O112      1.88752      .   S
    Zr109  O113      1.01811  1_564   S
    N26    O113      1.88767      .   S
    Zr109  O114      1.01900  1_554   S
    N31    O114      1.88902      .   S
    Zr109  O115      1.32914  1_554   S
    N2     O115      2.71775      .   S
    Zr116  O117      1.01916      .   S
    N11    O117      1.88928      .   S
    Zr116  O118      1.01809      .   S
    N42    O118      1.88763      .   S
    Zr116  O119      1.01811  1_554   S
    N27    O119      1.88767      .   S
    Zr116  O120      1.01913  1_554   S
    N30    O120      1.88922      .   S
    Zr116  O121      1.32913  1_554   S
    N3     O121      2.71771      .   S
    Zr116  O122      1.32912      .   S
    N6     O122      2.71767      .   S
    Zr123  O124      1.01803  1_545   S
    N21    O124      1.88753      .   S
    Zr123  O125      1.01810      .   S
    N36    O125      1.88765      .   S
    Zr123  O126      1.01905  1_545   S
    N13    O126      1.88909      .   S
    Zr123  O127      1.01918      .   S
    N32    O127      1.88930      .   S
    Zr123  O128      1.32927  1_545   S
    N0     O128      2.71813      .   S
    Zr123  O129      1.32913      .   S
    N5     O129      2.71772      .   S
    Zr130  O131      1.01918      .   S
    N12    O131      1.88930      .   S
    Zr130  O132      1.01810      .   S
    N20    O132      1.88765      .   S
    Zr130  O133      1.01810      .   S
    N37    O133      1.88765      .   S
    Zr130  O134      1.01917      .   S
    N33    O134      1.88929      .   S
    Zr130  O135      1.32926      .   S
    N1     O135      2.71809      .   S
    Zr130  O136      1.32914      .   S
    N4     O136      2.71772      .   S
    Zr137  O138      1.32921      .   S
    N7     O138      2.71767      .   S
    Zr137  O139      1.01803      .   S
    N38    O139      1.88744      .   S
    Zr137  O140      1.01803  1_545   S
    N23    O140      1.88754      .   S
    Zr137  O141      1.01917      .   S
    N34    O141      1.88930      .   S
    Zr137  O142      1.01905  1_545   S
    N15    O142      1.88909      .   S
    Zr137  O143      1.32913  1_545   S
    N2     O143      2.71770      .   S
    Zr144  O145      1.01810      .   S
    N22    O145      1.88764      .   S
    Zr144  O146      1.01810      .   S
    N39    O146      1.88765      .   S
    Zr144  O147      1.01917      .   S
    N35    O147      1.88930      .   S
    Zr144  O148      1.01917      .   S
    N14    O148      1.88930      .   S
    Zr144  O149      1.32922      .   S
    N6     O149      2.71770      .   S
    Zr144  O150      1.32912      .   S
    N3     O150      2.71770      .   S
    Zr151  O152      0.98468      .   S
    N8     O152      1.83392      .   S
    Zr151  O153      0.96642      .   S
    N44    O153      1.81456      .   S
    Zr151  O154      1.03073      .   S
    N16    O154      1.91264      .   S
    Zr151  O155      0.98466      .   S
    N32    O155      1.83386      .   S
    Zr156  O157      0.98469      .   S
    N9     O157      1.83393      .   S
    Zr156  O158      1.03073      .   S
    N17    O158      1.91263      .   S
    Zr156  O159      0.96641      .   S
    N45    O159      1.81455      .   S
    Zr156  O160      0.98467      .   S
    N33    O160      1.83387      .   S
    Zr161  O162      0.98466      .   S
    N10    O162      1.83385      .   S
    Zr161  O163      1.03073      .   S
    N18    O163      1.91264      .   S
    Zr161  O164      0.96642      .   S
    N46    O164      1.81457      .   S
    Zr161  O165      0.98467      .   S
    N34    O165      1.83387      .   S
    Zr166  O167      0.98466      .   S
    N11    O167      1.83385      .   S
    Zr166  O168      1.03073      .   S
    N19    O168      1.91264      .   S
    Zr166  O169      0.96642      .   S
    N47    O169      1.81456      .   S
    Zr166  O170      0.98467      .   S
    N35    O170      1.83386      .   S
    Zr171  O172      0.98466      .   S
    N12    O172      1.83386      .   S
    Zr171  O173      0.96270      .   S
    N48    O173      1.79672      .   S
    Zr171  O174      1.03073      .   S
    N52    O174      1.91264      .   S
    Zr171  O175      0.98456      .   S
    N28    O175      1.83354      .   S
    Zr176  O177      0.98467      .   S
    N13    O177      1.83386      .   S
    Zr176  O178      1.03073      .   S
    N53    O178      1.91264      .   S
    Zr176  O179      0.96270      .   S
    N49    O179      1.79672      .   S
    Zr176  O180      0.98456      .   S
    N29    O180      1.83355      .   S
    Zr181  O182      1.03073      .   S
    N54    O182      1.91263      .   S
    Zr181  O183      0.98466      .   S
    N14    O183      1.83385      .   S
    Zr181  O184      0.96271      .   S
    N50    O184      1.79672      .   S
    Zr181  O185      0.98467      .   S
    N30    O185      1.83387      .   S
    Zr186  O187      0.98466      .   S
    N15    O187      1.83385      .   S
    Zr186  O188      1.03073      .   S
    N55    O188      1.91264      .   S
    Zr186  O189      0.96270      .   S
    N51    O189      1.79672      .   S
    Zr186  O190      0.98467      .   S
    N31    O190      1.83387      .   S
