# CIF file generated by openbabel 2.4.90, see http://openbabel.sf.net
data_I
_chemical_name_common ''
_cell_length_a 15.135
_cell_length_b 14.352
_cell_length_c 21.106
_cell_angle_alpha 89.952
_cell_angle_beta 90.003
_cell_angle_gamma 90.053
_space_group_name_H-M_alt 'P 1'
_space_group_name_Hall 'P 1'
loop_
    _symmetry_equiv_pos_as_xyz
    x,y,z
loop_
    _atom_site_label
    _atom_site_type_symbol
    _atom_site_fract_x
    _atom_site_fract_y
    _atom_site_fract_z
    _atom_site_occupancy
    N0      N    0.49958   0.59508   0.43600   1.000
    N1      N    0.25015   0.76622   0.69039   1.000
    N2      N    0.75008   0.76623   0.69043   1.000
    N3      N    0.24958   0.73387   0.19013   1.000
    N4      N    0.74958   0.73387   0.19011   1.000
    N5      N    0.25017   0.26612   0.80987   1.000
    N6      N    0.74998   0.26613   0.80989   1.000
    N7      N    0.24985   0.23379   0.30956   1.000
    N8      N    0.74988   0.23378   0.30956   1.000
    N9      N    0.50040   0.40493   0.56400   1.000
    N10     N    0.00040   0.40494   0.56402   1.000
    N11     N    0.99998   0.09441   0.06435   1.000
    N12     N    0.49997   0.09426   0.06445   1.000
    N13     N    0.99957   0.59508   0.43598   1.000
    N14     N    0.99959   0.90568   0.93551   1.000
    N15     N    0.49960   0.90568   0.93560   1.000
    Zr16    Zr   0.74994   0.10120   0.06593   1.000
    O17     O    0.74975   0.15613   0.99157   1.000
    O18     O    0.74969   0.98838   0.09576   1.000
    O19     O    0.66766   0.09854   0.06527   1.000
    O20     O    0.83224   0.09857   0.06527   1.000
    Zr21    Zr   0.74956   0.89884   0.93408   1.000
    O22     O    0.74993   0.01164   0.90425   1.000
    O23     O    0.74943   0.84390   0.00844   1.000
    O24     O    0.83186   0.90144   0.93473   1.000
    O25     O    0.66728   0.90150   0.93471   1.000
    Zr26    Zr   0.24959   0.60229   0.43405   1.000
    O27     O    0.24948   0.48923   0.40389   1.000
    O28     O    0.33187   0.59950   0.43484   1.000
    O29     O    0.16729   0.59953   0.43488   1.000
    O30     O    0.24958   0.65657   0.50857   1.000
    Zr31    Zr   0.75039   0.39771   0.56597   1.000
    O32     O    0.75041   0.34343   0.49142   1.000
    O33     O    0.75048   0.51078   0.59613   1.000
    O34     O    0.66810   0.40050   0.56517   1.000
    O35     O    0.83268   0.40048   0.56514   1.000
    Zr36    Zr   0.25039   0.39773   0.56596   1.000
    O37     O    0.25041   0.34345   0.49142   1.000
    O38     O    0.33269   0.40048   0.56512   1.000
    O39     O    0.16811   0.40052   0.56517   1.000
    O40     O    0.25051   0.51079   0.59611   1.000
    Zr41    Zr   0.74958   0.60229   0.43404   1.000
    O42     O    0.74948   0.48923   0.40388   1.000
    O43     O    0.66728   0.59953   0.43488   1.000
    O44     O    0.83186   0.59950   0.43483   1.000
    O45     O    0.74955   0.65657   0.50857   1.000
    Zr46    Zr   0.24957   0.89879   0.93409   1.000
    O47     O    0.24998   0.01160   0.90425   1.000
    O48     O    0.24944   0.84387   0.00845   1.000
    O49     O    0.33187   0.90141   0.93476   1.000
    O50     O    0.16729   0.90147   0.93469   1.000
    Zr51    Zr   0.25001   0.10121   0.06592   1.000
    O52     O    0.24996   0.15613   0.99155   1.000
    O53     O    0.24973   0.98840   0.09576   1.000
    O54     O    0.16771   0.09861   0.06523   1.000
    O55     O    0.33229   0.09852   0.06530   1.000
    O56     O    0.24998   0.14175   0.13829   1.000
    O57     O    0.25029   0.35737   0.63838   1.000
    O58     O    0.74972   0.85829   0.86171   1.000
    O59     O    0.74995   0.14174   0.13829   1.000
    O60     O    0.75024   0.35736   0.63839   1.000
    O61     O    0.74963   0.64265   0.36162   1.000
    O62     O    0.24964   0.64264   0.36163   1.000
    O63     O    0.24975   0.85825   0.86171   1.000
loop_
    _geom_bond_atom_site_label_1
    _geom_bond_atom_site_label_2
    _geom_bond_distance
    _geom_bond_site_symmetry_2
    _ccdc_geom_bond_type
    Zr16   O17       1.75572  1_554   S
    N6     O17       4.14560      .   S
    Zr16   O18       1.73670  1_545   S
    N4     O18       4.15883      .   S
    Zr16   O19       1.24602      .   S
    N12    O19       2.53869      .   S
    Zr16   O20       1.24633      .   S
    N11    O20       2.53950      .   S
    Zr21   O22       1.73661  1_565   S
    N6     O22       4.15867      .   S
    Zr21   O23       1.75574  1_556   S
    N4     O23       4.14559      .   S
    Zr21   O24       1.24630      .   S
    N14    O24       2.53934      .   S
    Zr21   O25       1.24597      .   S
    N15    O25       2.53872      .   S
    Zr26   O27       1.74359      .   S
    N7     O27       4.17313      .   S
    Zr26   O28       1.24620      .   S
    N0     O28       2.53913      .   S
    Zr26   O29       1.24632      .   S
    N13    O29       2.53922  1_655   S
    Zr26   O30       1.75585      .   S
    N1     O30       4.14876      .   S
    Zr31   O32       1.75629      .   S
    N8     O32       4.14961      .   S
    Zr31   O33       1.74363      .   S
    N2     O33       4.17318      .   S
    Zr31   O34       1.24620      .   S
    N9     O34       2.53913      .   S
    Zr31   O35       1.24631      .   S
    N10    O35       2.53920  1_455   S
    Zr36   O37       1.75610      .   S
    N7     O37       4.14965      .   S
    Zr36   O38       1.24628      .   S
    N9     O38       2.53909      .   S
    Zr36   O39       1.24622      .   S
    N10    O39       2.53924      .   S
    Zr36   O40       1.74345      .   S
    N1     O40       4.17264      .   S
    Zr41   O42       1.74360      .   S
    N8     O42       4.17319      .   S
    Zr41   O43       1.24627      .   S
    N0     O43       2.53907      .   S
    Zr41   O44       1.24622      .   S
    N13    O44       2.53923      .   S
    Zr41   O45       1.75599      .   S
    N2     O45       4.14975      .   S
    Zr46   O47       1.73682  1_565   S
    N5     O47       4.15917      .   S
    Zr46   O48       1.75566  1_556   S
    N3     O48       4.14555      .   S
    Zr46   O49       1.24629      .   S
    N15    O49       2.53924      .   S
    Zr46   O50       1.24602      .   S
    N14    O50       2.53887  1_655   S
    Zr51   O52       1.75573  1_554   S
    N5     O52       4.14558      .   S
    Zr51   O53       1.73686  1_545   S
    N3     O53       4.15916      .   S
    Zr51   O54       1.24631      .   S
    N11    O54       2.53930  1_655   S
    Zr51   O55       1.24593      .   S
    N12    O55       2.53870      .   S
    Zr51   O56       1.63487      .   S
    N7     O56       3.84981      .   S
    Zr36   O57       1.63413      .   S
    N5     O57       3.84812      .   S
    Zr21   O58       1.63490      .   S
    N2     O58       3.84995      .   S
    N8     O59       3.84971      .   S
    Zr16   O59       1.63481      .   S
    Zr31   O60       1.63414      .   S
    N6     O60       3.84814      .   S
    Zr41   O61       1.63417      .   S
    N4     O61       3.84826      .   S
    Zr26   O62       1.63413      .   S
    N3     O62       3.84815      .   S
    Zr46   O63       1.63514      .   S
    N1     O63       3.85063      .   S
