# CIF file generated by openbabel 2.4.90, see http://openbabel.sf.net
data_I
_chemical_name_common ''
_cell_length_a 15.135
_cell_length_b 14.352
_cell_length_c 21.106
_cell_angle_alpha 89.952
_cell_angle_beta 90.003
_cell_angle_gamma 90.053
_space_group_name_H-M_alt 'P 1'
_space_group_name_Hall 'P 1'
loop_
    _symmetry_equiv_pos_as_xyz
    x,y,z
loop_
    _atom_site_label
    _atom_site_type_symbol
    _atom_site_fract_x
    _atom_site_fract_y
    _atom_site_fract_z
    _atom_site_occupancy
    Zr0     Zr   0.24959   0.60229   0.43405   1.000
    Zr1     Zr   0.74958   0.60229   0.43404   1.000
    Zr2     Zr   0.25039   0.39773   0.56596   1.000
    Zr3     Zr   0.75039   0.39771   0.56597   1.000
    Zr4     Zr   0.25001   0.10121   0.06592   1.000
    Zr5     Zr   0.74994   0.10120   0.06593   1.000
    Zr6     Zr   0.24957   0.89879   0.93409   1.000
    Zr7     Zr   0.74956   0.89884   0.93408   1.000
    N8      N    0.49958   0.59508   0.43600   1.000
    O9      O    0.58498   0.59678   0.43571   1.000
    O10     O    0.41416   0.59671   0.43564   1.000
    N11     N    0.25015   0.76622   0.69039   1.000
    O12     O    0.25034   0.83566   0.78413   1.000
    O13     O    0.24953   0.79978   0.79453   1.000
    O14     O    0.25062   0.62385   0.62626   1.000
    O15     O    0.24957   0.71086   0.58310   1.000
    N16     N    0.75008   0.76623   0.69043   1.000
    O17     O    0.74953   0.71086   0.58310   1.000
    O18     O    0.75029   0.83568   0.78415   1.000
    O19     O    0.74949   0.79981   0.79455   1.000
    O20     O    0.75058   0.62385   0.62628   1.000
    N21     N    0.24958   0.73387   0.19013   1.000
    O22     O    0.24920   0.66502   0.28408   1.000
    O23     O    0.25018   0.70098   0.29433   1.000
    O24     O    0.24944   0.87558   0.12560   1.000
    O25     O    0.24931   0.78895   0.08281   1.000
    N26     N    0.74958   0.73387   0.19011   1.000
    O27     O    0.74919   0.66502   0.28407   1.000
    O28     O    0.75017   0.70098   0.29432   1.000
    O29     O    0.74943   0.87557   0.12559   1.000
    O30     O    0.74930   0.78896   0.08280   1.000
    N31     N    0.25017   0.26612   0.80987   1.000
    O32     O    0.25067   0.33498   0.71593   1.000
    O33     O    0.24969   0.29903   0.70567   1.000
    O34     O    0.25038   0.12442   0.87441   1.000
    O35     O    0.24991   0.21104   0.91719   1.000
    N36     N    0.74998   0.26613   0.80989   1.000
    O37     O    0.75057   0.33498   0.71594   1.000
    O38     O    0.74960   0.29902   0.70569   1.000
    O39     O    0.75031   0.12445   0.87443   1.000
    O40     O    0.74956   0.21106   0.91721   1.000
    N41     N    0.24985   0.23379   0.30956   1.000
    O42     O    0.24953   0.16435   0.21585   1.000
    O43     O    0.25036   0.20024   0.20545   1.000
    O44     O    0.24937   0.37616   0.37372   1.000
    O45     O    0.25042   0.28916   0.41689   1.000
    N46     N    0.74988   0.23378   0.30956   1.000
    O47     O    0.74953   0.16434   0.21585   1.000
    O48     O    0.75038   0.20021   0.20546   1.000
    O49     O    0.74938   0.37616   0.37372   1.000
    O50     O    0.75043   0.28915   0.41687   1.000
    N51     N    0.50040   0.40493   0.56400   1.000
    O52     O    0.58581   0.40330   0.56437   1.000
    O53     O    0.41499   0.40324   0.56429   1.000
    N54     N    0.00040   0.40494   0.56402   1.000
    O55     O    0.08582   0.40331   0.56438   1.000
    O56     O    0.91498   0.40324   0.56430   1.000
    N57     N    0.99998   0.09441   0.06435   1.000
    O58     O    0.91455   0.09593   0.06461   1.000
    O59     O    0.08540   0.09600   0.06455   1.000
    N60     N    0.49997   0.09426   0.06445   1.000
    O61     O    0.41456   0.09583   0.06468   1.000
    O62     O    0.58537   0.09589   0.06461   1.000
    N63     N    0.99957   0.59508   0.43598   1.000
    O64     O    0.08499   0.59677   0.43570   1.000
    O65     O    0.91415   0.59671   0.43562   1.000
    N66     N    0.99959   0.90568   0.93551   1.000
    O67     O    0.91417   0.90405   0.93538   1.000
    O68     O    0.08501   0.90415   0.93530   1.000
    N69     N    0.49960   0.90568   0.93560   1.000
    O70     O    0.41418   0.90404   0.93544   1.000
    O71     O    0.58500   0.90417   0.93534   1.000
loop_
    _geom_bond_atom_site_label_1
    _geom_bond_atom_site_label_2
    _geom_bond_distance
    _geom_bond_site_symmetry_2
    _ccdc_geom_bond_type
    N8     O9        1.29288      .   S
    Zr1    O9        2.49254      .   S
    N8     O10       1.29301      .   S
    Zr0    O10       2.49239      .   S
    N11    O12       2.21609      .   S
    Zr6    O12       3.29290      .   S
    N11    O13       2.25049      .   S
    Zr6    O13       3.27153      .   S
    N11    O14       2.45190      .   S
    Zr2    O14       3.48690      .   S
    N11    O15       2.40051      .   S
    Zr0    O15       3.51169      .   S
    N16    O17       2.40135      .   S
    Zr1    O17       3.51198      .   S
    N16    O18       2.21567      .   S
    Zr7    O18       3.29241      .   S
    N16    O19       2.25002      .   S
    Zr7    O19       3.27107      .   S
    N16    O20       2.45226      .   S
    Zr3    O20       3.48727      .   S
    N21    O22       2.21476      .   S
    Zr0    O22       3.29011      .   S
    N21    O23       2.24905      .   S
    Zr0    O23       3.27033      .   S
    N21    O24       2.44671      .   S
    Zr4    O24       3.47372  1_545   S
    N21    O25       2.39842      .   S
    Zr6    O25       3.51132  1_556   S
    N26    O27       2.21483      .   S
    Zr1    O27       3.29018      .   S
    N26    O28       2.24912      .   S
    Zr1    O28       3.27040      .   S
    N26    O29       2.44654      .   S
    Zr5    O29       3.47341  1_545   S
    N26    O30       2.39839      .   S
    Zr7    O30       3.51148  1_556   S
    N31    O32       2.21476      .   S
    Zr2    O32       3.29007      .   S
    N31    O33       2.24899      .   S
    Zr2    O33       3.27034      .   S
    N31    O34       2.44677      .   S
    Zr6    O34       3.47363  1_565   S
    N31    O35       2.39838      .   S
    Zr4    O35       3.51145  1_554   S
    N36    O37       2.21476      .   S
    Zr3    O37       3.29011      .   S
    N36    O38       2.24903      .   S
    Zr3    O38       3.27034      .   S
    N36    O39       2.44653      .   S
    Zr7    O39       3.47321  1_565   S
    N36    O40       2.39842      .   S
    Zr5    O40       3.51144  1_554   S
    N41    O42       2.21561      .   S
    Zr4    O42       3.29229      .   S
    N41    O43       2.24990      .   S
    Zr4    O43       3.27105      .   S
    N41    O44       2.45227      .   S
    Zr0    O44       3.48717      .   S
    N41    O45       2.40115      .   S
    Zr2    O45       3.51221      .   S
    N46    O47       2.21551      .   S
    Zr5    O47       3.29224      .   S
    N46    O48       2.24988      .   S
    Zr5    O48       3.27089      .   S
    N46    O49       2.45232      .   S
    Zr1    O49       3.48721      .   S
    N46    O50       2.40090      .   S
    Zr3    O50       3.51258      .   S
    N51    O52       1.29301      .   S
    Zr3    O52       2.49239      .   S
    N51    O53       1.29289      .   S
    Zr2    O53       2.49257      .   S
    N54    O55       1.29310      .   S
    Zr2    O55       2.49244      .   S
    N54    O56       1.29297  1_455   S
    Zr3    O56       2.49262      .   S
    N57    O58       1.29325      .   S
    Zr5    O58       2.49266      .   S
    N57    O59       1.29306  1_655   S
    Zr4    O59       2.49262      .   S
    N60    O61       1.29285      .   S
    Zr4    O61       2.49186      .   S
    N60    O62       1.29274      .   S
    Zr5    O62       2.49204      .   S
    N63    O64       1.29299  1_655   S
    Zr0    O64       2.49264      .   S
    N63    O65       1.29310      .   S
    Zr1    O65       2.49243      .   S
    N66    O67       1.29311      .   S
    Zr7    O67       2.49260      .   S
    N66    O68       1.29293  1_655   S
    Zr6    O68       2.49204      .   S
    N69    O70       1.29302      .   S
    Zr6    O70       2.49258      .   S
    N69    O71       1.29282      .   S
    Zr7    O71       2.49194      .   S
