# CIF file generated by openbabel 2.4.90, see http://openbabel.sf.net
data_I
_chemical_name_common ''
_cell_length_a 12.488
_cell_length_b 13.572
_cell_length_c 18.219
_cell_angle_alpha 106.039
_cell_angle_beta 89.968
_cell_angle_gamma 90.044
_space_group_name_H-M_alt 'P 1'
_space_group_name_Hall 'P 1'
loop_
    _symmetry_equiv_pos_as_xyz
    x,y,z
loop_
    _atom_site_label
    _atom_site_type_symbol
    _atom_site_fract_x
    _atom_site_fract_y
    _atom_site_fract_z
    _atom_site_occupancy
    N0      N    0.50001   0.99997   0.00002   1.000
    N1      N    0.25000   0.99999   0.49999   1.000
    N2      N    0.74999   0.99999   0.50001   1.000
    N3      N    0.24999   0.49998   0.99980   1.000
    N4      N    0.75000   0.49998   0.99998   1.000
    N5      N    0.50000   0.49999   0.50001   1.000
    N6      N    0.00000   0.49999   0.50002   1.000
    N7      N    0.00001   0.99998   0.00002   1.000
    Zr8     Zr   0.68975   0.74977   0.75020   1.000
    O9      O    0.59362   0.68073   0.82095   1.000
    O10     O    0.59373   0.81882   0.67931   1.000
    O11     O    0.63070   0.67687   0.67737   1.000
    O12     O    0.63071   0.82292   0.82285   1.000
    Zr13    Zr   0.81025   0.25020   0.24983   1.000
    O14     O    0.86930   0.32310   0.32266   1.000
    O15     O    0.90627   0.18115   0.32070   1.000
    O16     O    0.90638   0.31924   0.17897   1.000
    O17     O    0.86929   0.17702   0.17719   1.000
    Zr18    Zr   0.31025   0.25021   0.24983   1.000
    O19     O    0.36930   0.32310   0.32266   1.000
    O20     O    0.40638   0.31924   0.17902   1.000
    O21     O    0.36930   0.17704   0.17718   1.000
    O22     O    0.40626   0.18115   0.32071   1.000
    Zr23    Zr   0.18975   0.74978   0.75020   1.000
    O24     O    0.09362   0.68074   0.82100   1.000
    O25     O    0.13070   0.67688   0.67738   1.000
    O26     O    0.09373   0.81883   0.67932   1.000
    O27     O    0.13071   0.82295   0.82285   1.000
loop_
    _geom_bond_atom_site_label_1
    _geom_bond_atom_site_label_2
    _geom_bond_distance
    _geom_bond_site_symmetry_2
    _ccdc_geom_bond_type
    Zr8    O9        2.15518      .   S
    N3     O9        6.27961      .   S
    Zr8    O10       2.15791      .   S
    N1     O10       6.29419      .   S
    Zr8    O11       1.59939      .   S
    N5     O11       3.81854      .   S
    Zr8    O12       1.59853      .   S
    N0     O12       3.81721  1_554   S
    Zr13   O14       1.59933      .   S
    N6     O14       3.81868  1_455   S
    Zr13   O15       2.15764      .   S
    N1     O15       6.29362  1_465   S
    Zr13   O16       2.15656      .   S
    N3     O16       6.28332  1_456   S
    Zr13   O17       1.59853      .   S
    N7     O17       3.81725  1_465   S
    Zr18   O19       1.59929      .   S
    N5     O19       3.81859      .   S
    Zr18   O20       2.15597      .   S
    N4     O20       6.28176  1_556   S
    Zr18   O21       1.59856      .   S
    N0     O21       3.81731  1_565   S
    Zr18   O22       2.15771      .   S
    N2     O22       6.29384  1_565   S
    Zr23   O24       2.15579      .   S
    N4     O24       6.28121  1_655   S
    Zr23   O25       1.59927      .   S
    N6     O25       3.81861      .   S
    Zr23   O26       2.15775      .   S
    N2     O26       6.29397  1_655   S
    Zr23   O27       1.59852      .   S
    N7     O27       3.81716  1_554   S
