# CIF file generated by openbabel 2.4.90, see http://openbabel.sf.net
data_I
_chemical_name_common ''
_cell_length_a 12.488
_cell_length_b 13.572
_cell_length_c 18.219
_cell_angle_alpha 106.039
_cell_angle_beta 89.968
_cell_angle_gamma 90.044
_space_group_name_H-M_alt 'P 1'
_space_group_name_Hall 'P 1'
loop_
    _symmetry_equiv_pos_as_xyz
    x,y,z
loop_
    _atom_site_label
    _atom_site_type_symbol
    _atom_site_fract_x
    _atom_site_fract_y
    _atom_site_fract_z
    _atom_site_occupancy
    C0      C    0.18975   0.74978   0.75020   1.000
    C1      C    0.68975   0.74977   0.75020   1.000
    C2      C    0.31025   0.25021   0.24983   1.000
    C3      C    0.81025   0.25020   0.24983   1.000
    C4      C    0.03277   0.93385   0.70702   1.000
    C5      C    0.53274   0.93386   0.70701   1.000
    C6      C    0.36725   0.77202   0.49938   1.000
    C7      C    0.86725   0.77204   0.49939   1.000
    C8      C    0.11591   0.06428   0.95156   1.000
    C9      C    0.61592   0.06421   0.95149   1.000
    C10     C    0.22954   0.72438   0.58113   1.000
    C11     C    0.72953   0.72439   0.58114   1.000
    C12     C    0.18366   0.93625   0.01445   1.000
    C13     C    0.68368   0.93632   0.01450   1.000
    C14     C    0.06674   0.86069   0.98570   1.000
    C15     C    0.56678   0.86070   0.98586   1.000
    C16     C    0.05645   0.96541   0.12198   1.000
    C17     C    0.55645   0.96554   0.12201   1.000
    C18     C    0.07730   0.07885   0.09469   1.000
    C19     C    0.57726   0.07893   0.09467   1.000
    C20     C    0.02128   0.78387   0.43585   1.000
    C21     C    0.52129   0.78386   0.43584   1.000
    C22     C    0.18338   0.86980   0.38692   1.000
    C23     C    0.68339   0.86979   0.38692   1.000
    C24     C    0.38434   0.88436   0.77919   1.000
    C25     C    0.88436   0.88433   0.77920   1.000
    C26     C    0.03006   0.56226   0.79319   1.000
    C27     C    0.53005   0.56227   0.79319   1.000
    C28     C    0.36872   0.72992   0.00000   1.000
    C29     C    0.86873   0.72994   0.00000   1.000
    C30     C    0.11462   0.43555   0.54940   1.000
    C31     C    0.61462   0.43554   0.54940   1.000
    C32     C    0.23072   0.77708   0.91955   1.000
    C33     C    0.73071   0.77708   0.91955   1.000
    C34     C    0.18434   0.56331   0.48672   1.000
    C35     C    0.68434   0.56331   0.48670   1.000
    C36     C    0.06749   0.63906   0.51453   1.000
    C37     C    0.56749   0.63906   0.51452   1.000
    C38     C    0.05849   0.53436   0.37838   1.000
    C39     C    0.55848   0.53435   0.37838   1.000
    C40     C    0.07815   0.42076   0.40570   1.000
    C41     C    0.57815   0.42076   0.40571   1.000
    C42     C    0.02245   0.71701   0.06400   1.000
    C43     C    0.52245   0.71700   0.06404   1.000
    C44     C    0.18470   0.63145   0.11282   1.000
    C45     C    0.68471   0.63145   0.11281   1.000
    C46     C    0.38112   0.61140   0.72131   1.000
    C47     C    0.88111   0.61137   0.72131   1.000
    C48     C    0.46726   0.06611   0.29300   1.000
    C49     C    0.96723   0.06611   0.29301   1.000
    C50     C    0.13272   0.22794   0.50064   1.000
    C51     C    0.63272   0.22796   0.50066   1.000
    C52     C    0.38413   0.93572   0.04854   1.000
    C53     C    0.88413   0.93568   0.04850   1.000
    C54     C    0.27045   0.27559   0.41890   1.000
    C55     C    0.77045   0.27562   0.41891   1.000
    C56     C    0.31636   0.06363   0.98556   1.000
    C57     C    0.81638   0.06371   0.98562   1.000
    C58     C    0.43325   0.13925   0.01420   1.000
    C59     C    0.93329   0.13928   0.01429   1.000
    C60     C    0.44360   0.03443   0.87804   1.000
    C61     C    0.94359   0.03456   0.87809   1.000
    C62     C    0.42276   0.92103   0.90538   1.000
    C63     C    0.92274   0.92112   0.90537   1.000
    C64     C    0.47869   0.21612   0.56419   1.000
    C65     C    0.97870   0.21610   0.56418   1.000
    C66     C    0.31659   0.13019   0.61311   1.000
    C67     C    0.81660   0.13017   0.61310   1.000
    C68     C    0.11565   0.11562   0.22084   1.000
    C69     C    0.61566   0.11562   0.22085   1.000
    C70     C    0.46993   0.43769   0.20685   1.000
    C71     C    0.96994   0.43771   0.20680   1.000
    C72     C    0.13127   0.27003   0.99890   1.000
    C73     C    0.63127   0.27004   0.99898   1.000
    C74     C    0.38538   0.56443   0.45064   1.000
    C75     C    0.88538   0.56443   0.45064   1.000
    C76     C    0.26928   0.22288   0.08049   1.000
    C77     C    0.76928   0.22288   0.08000   1.000
    C78     C    0.31566   0.43667   0.51332   1.000
    C79     C    0.81566   0.43667   0.51333   1.000
    C80     C    0.43251   0.36092   0.48552   1.000
    C81     C    0.93251   0.36092   0.48552   1.000
    C82     C    0.44152   0.46562   0.62166   1.000
    C83     C    0.94151   0.46562   0.62166   1.000
    C84     C    0.42185   0.57921   0.59432   1.000
    C85     C    0.92185   0.57922   0.59433   1.000
    C86     C    0.47753   0.28296   0.93000   1.000
    C87     C    0.97755   0.28295   0.93599   1.000
    C88     C    0.31528   0.36852   0.88723   1.000
    C89     C    0.81529   0.36851   0.88722   1.000
    C90     C    0.11889   0.38860   0.27873   1.000
    C91     C    0.61886   0.38857   0.27873   1.000
    C92     C    0.46613   0.88937   0.67580   1.000
    C93     C    0.96614   0.88936   0.67500   1.000
    C94     C    0.37608   0.79764   0.56118   1.000
    C95     C    0.87609   0.79764   0.56119   1.000
    C96     C    0.20441   0.96878   0.50291   1.000
    C97     C    0.70440   0.96878   0.50290   1.000
    C98     C    0.04740   0.88695   0.54966   1.000
    C99     C    0.54738   0.88695   0.54965   1.000
    C100    C    0.07897   0.98745   0.93620   1.000
    C101    C    0.57895   0.98740   0.93621   1.000
    C102    C    0.29815   0.77103   0.60637   1.000
    C103    C    0.79815   0.77103   0.60637   1.000
    C104    C    0.09750   0.93997   0.00285   1.000
    C105    C    0.59753   0.93999   0.00286   1.000
    C106    C    0.04165   0.00177   0.07587   1.000
    C107    C    0.54167   0.00183   0.07586   1.000
    C108    C    0.06790   0.84620   0.47221   1.000
    C109    C    0.56790   0.84619   0.47221   1.000
    C110    C    0.46388   0.85846   0.59551   1.000
    C111    C    0.96388   0.85847   0.59552   1.000
    C112    C    0.13670   0.92564   0.86411   1.000
    C113    C    0.63669   0.92549   0.86412   1.000
    C114    C    0.15575   0.89185   0.44591   1.000
    C115    C    0.65575   0.89184   0.44590   1.000
    C116    C    0.38458   0.86041   0.71715   1.000
    C117    C    0.88460   0.86039   0.71716   1.000
    C118    C    0.46433   0.60808   0.82444   1.000
    C119    C    0.96433   0.60808   0.82444   1.000
    C120    C    0.37659   0.70291   0.93924   1.000
    C121    C    0.87659   0.70292   0.93924   1.000
    C122    C    0.20449   0.53124   0.99715   1.000
    C123    C    0.70450   0.53123   0.99714   1.000
    C124    C    0.04730   0.61274   0.95053   1.000
    C125    C    0.54730   0.61273   0.95053   1.000
    C126    C    0.07805   0.51247   0.56436   1.000
    C127    C    0.57803   0.51246   0.56436   1.000
    C128    C    0.29846   0.72929   0.89416   1.000
    C129    C    0.79846   0.72929   0.89416   1.000
    C130    C    0.09797   0.55971   0.49774   1.000
    C131    C    0.59797   0.55970   0.49775   1.000
    C132    C    0.04285   0.49797   0.42438   1.000
    C133    C    0.54285   0.49798   0.42438   1.000
    C134    C    0.06858   0.65427   0.02776   1.000
    C135    C    0.56858   0.65426   0.02775   1.000
    C136    C    0.46343   0.64077   0.90481   1.000
    C137    C    0.96343   0.64077   0.90481   1.000
    C138    C    0.13480   0.57417   0.63698   1.000
    C139    C    0.63480   0.57417   0.63697   1.000
    C140    C    0.15651   0.60881   0.05390   1.000
    C141    C    0.65651   0.60880   0.05398   1.000
    C142    C    0.38258   0.63684   0.78332   1.000
    C143    C    0.88257   0.63682   0.78332   1.000
    C144    C    0.03386   0.11060   0.32414   1.000
    C145    C    0.53387   0.11061   0.32415   1.000
    C146    C    0.12389   0.20234   0.43884   1.000
    C147    C    0.62390   0.20235   0.43880   1.000
    C148    C    0.29559   0.03120   0.49713   1.000
    C149    C    0.79558   0.03119   0.49712   1.000
    C150    C    0.45260   0.11303   0.45030   1.000
    C151    C    0.95259   0.11303   0.45037   1.000
    C152    C    0.42108   0.01254   0.06384   1.000
    C153    C    0.92107   0.01251   0.06383   1.000
    C154    C    0.20183   0.22895   0.39366   1.000
    C155    C    0.70184   0.22896   0.39360   1.000
    C156    C    0.40251   0.05996   0.99719   1.000
    C157    C    0.90253   0.05999   0.99722   1.000
    C158    C    0.45837   0.99812   0.92419   1.000
    C159    C    0.95838   0.99819   0.92420   1.000
    C160    C    0.43209   0.15378   0.52783   1.000
    C161    C    0.93208   0.15377   0.52782   1.000
    C162    C    0.03610   0.14151   0.40451   1.000
    C163    C    0.53611   0.14151   0.40452   1.000
    C164    C    0.36332   0.07441   0.13593   1.000
    C165    C    0.86332   0.07431   0.13590   1.000
    C166    C    0.34424   0.10813   0.55413   1.000
    C167    C    0.84424   0.10812   0.55412   1.000
    C168    C    0.11541   0.13957   0.28287   1.000
    C169    C    0.61542   0.13957   0.28289   1.000
    C170    C    0.03567   0.39189   0.17560   1.000
    C171    C    0.53566   0.39188   0.17560   1.000
    C172    C    0.12341   0.29705   0.06080   1.000
    C173    C    0.62340   0.29706   0.06080   1.000
    C174    C    0.29550   0.46874   0.00289   1.000
    C175    C    0.79550   0.46873   0.00280   1.000
    C176    C    0.45270   0.38724   0.04951   1.000
    C177    C    0.95269   0.38723   0.04950   1.000
    C178    C    0.42196   0.48751   0.43567   1.000
    C179    C    0.92195   0.48751   0.43568   1.000
    C180    C    0.20154   0.27068   0.10580   1.000
    C181    C    0.70153   0.27068   0.10588   1.000
    C182    C    0.40203   0.44027   0.50229   1.000
    C183    C    0.90203   0.44027   0.50230   1.000
    C184    C    0.45715   0.50200   0.57565   1.000
    C185    C    0.95715   0.50201   0.57566   1.000
    C186    C    0.43141   0.34570   0.97229   1.000
    C187    C    0.93141   0.34570   0.97228   1.000
    C188    C    0.03657   0.35919   0.09522   1.000
    C189    C    0.53656   0.35919   0.09523   1.000
    C190    C    0.36520   0.42580   0.36306   1.000
    C191    C    0.86520   0.42580   0.36306   1.000
    C192    C    0.34348   0.39116   0.94606   1.000
    C193    C    0.84349   0.39115   0.94605   1.000
    C194    C    0.11742   0.36314   0.21672   1.000
    C195    C    0.61741   0.36313   0.21672   1.000
    C196    C    0.13937   0.98332   0.58964   1.000
    C197    C    0.63935   0.98333   0.58963   1.000
    C198    C    0.13875   0.51589   0.91063   1.000
    C199    C    0.63875   0.51589   0.91062   1.000
    C200    C    0.36063   0.01665   0.41040   1.000
    C201    C    0.86061   0.01666   0.41039   1.000
    C202    C    0.36125   0.48408   0.08941   1.000
    C203    C    0.86125   0.48407   0.08940   1.000
    C204    C    0.30111   0.80175   0.68353   1.000
    C205    C    0.80112   0.80175   0.68350   1.000
    C206    C    0.30021   0.69702   0.81702   1.000
    C207    C    0.80020   0.69701   0.81702   1.000
    C208    C    0.19888   0.19822   0.31650   1.000
    C209    C    0.69889   0.19823   0.31651   1.000
    C210    C    0.19980   0.30296   0.18302   1.000
    C211    C    0.69979   0.30295   0.18302   1.000
    C212    C    0.21766   0.96125   0.84040   1.000
    C213    C    0.71774   0.96098   0.84046   1.000
    C214    C    0.09692   0.83472   0.83175   1.000
    C215    C    0.59686   0.83460   0.83176   1.000
    C216    C    0.21339   0.53739   0.66241   1.000
    C217    C    0.71339   0.53739   0.66240   1.000
    C218    C    0.09683   0.66614   0.66798   1.000
    C219    C    0.59683   0.66615   0.66790   1.000
    C220    C    0.28230   0.03887   0.15958   1.000
    C221    C    0.78236   0.03869   0.15962   1.000
    C222    C    0.40311   0.16533   0.16828   1.000
    C223    C    0.90307   0.16524   0.16830   1.000
    C224    C    0.28662   0.46259   0.33760   1.000
    C225    C    0.78662   0.46259   0.33762   1.000
    C226    C    0.40317   0.33383   0.33207   1.000
    C227    C    0.90317   0.33383   0.33207   1.000
    O228    O    0.37265   0.71641   0.96962   1.000
    O229    O    0.87266   0.71643   0.96962   1.000
    O230    O    0.82837   0.47640   0.04610   1.000
    O231    O    0.81949   0.42994   0.97443   1.000
    O232    O    0.75000   0.49998   0.99997   1.000
    O233    O    0.14058   0.93811   0.00865   1.000
    O234    O    0.06958   0.97087   0.03936   1.000
    O235    O    0.08823   0.96371   0.96952   1.000
    O236    O    0.08212   0.90033   0.99428   1.000
    O237    O    0.64060   0.93816   0.00868   1.000
    O238    O    0.56960   0.97091   0.03936   1.000
    O239    O    0.58824   0.96370   0.96954   1.000
    O240    O    0.58216   0.90035   0.99436   1.000
    O241    O    0.32837   0.47641   0.04615   1.000
    O242    O    0.31949   0.42995   0.97448   1.000
    O243    O    0.24999   0.49999   0.00002   1.000
    O244    O    0.41788   0.09961   0.00570   1.000
    O245    O    0.91791   0.09963   0.00576   1.000
    O246    O    0.61255   0.63153   0.04087   1.000
    O247    O    0.54552   0.68563   0.04589   1.000
    O248    O    0.55794   0.63349   0.98914   1.000
    O249    O    0.11255   0.63154   0.04083   1.000
    O250    O    0.04551   0.68564   0.04588   1.000
    O251    O    0.05794   0.63350   0.98915   1.000
    O252    O    0.90260   0.97409   0.05617   1.000
    O253    O    0.40261   0.97413   0.05619   1.000
    O254    O    0.90697   0.43565   0.06945   1.000
    O255    O    0.99463   0.37321   0.07236   1.000
    O256    O    0.94205   0.36647   0.01089   1.000
    O257    O    0.40697   0.43566   0.06946   1.000
    O258    O    0.49463   0.37322   0.07237   1.000
    O259    O    0.44205   0.36647   0.01090   1.000
    O260    O    0.17061   0.62013   0.08336   1.000
    O261    O    0.18050   0.57002   0.02553   1.000
    O262    O    0.67061   0.62012   0.08340   1.000
    O263    O    0.68051   0.57002   0.02556   1.000
    O264    O    0.07999   0.32812   0.07801   1.000
    O265    O    0.16247   0.28386   0.08330   1.000
    O266    O    0.12734   0.28354   0.02985   1.000
    O267    O    0.57998   0.32812   0.07802   1.000
    O268    O    0.66247   0.28387   0.08334   1.000
    O269    O    0.62734   0.28355   0.02989   1.000
    O270    O    0.98136   0.00714   0.06985   1.000
    O271    O    0.89219   0.04341   0.09987   1.000
    O272    O    0.91180   0.03625   0.03053   1.000
    O273    O    0.48137   0.00719   0.06985   1.000
    O274    O    0.39220   0.04348   0.09988   1.000
    O275    O    0.41180   0.03625   0.03051   1.000
    O276    O    0.55947   0.04038   0.08527   1.000
    O277    O    0.54906   0.98369   0.09893   1.000
    O278    O    0.05947   0.04031   0.08528   1.000
    O279    O    0.04905   0.98359   0.09892   1.000
    O280    O    0.73541   0.24678   0.09294   1.000
    O281    O    0.23541   0.24678   0.09315   1.000
    O282    O    0.03612   0.37554   0.13541   1.000
    O283    O    0.53611   0.37553   0.13542   1.000
    O284    O    0.20067   0.28682   0.14441   1.000
    O285    O    0.70066   0.28682   0.14445   1.000
    O286    O    0.82284   0.05650   0.14776   1.000
    O287    O    0.88320   0.11978   0.15210   1.000
    O288    O    0.32281   0.05664   0.14775   1.000
    O289    O    0.38322   0.11987   0.15211   1.000
    O290    O    0.35668   0.20777   0.20906   1.000
    O291    O    0.85666   0.20772   0.20907   1.000
    O292    O    0.50280   0.41478   0.19123   1.000
    O293    O    0.57653   0.37750   0.19616   1.000
    O294    O    0.00281   0.41480   0.19120   1.000
    O295    O    0.07655   0.37752   0.19616   1.000
    O296    O    0.15861   0.33305   0.19987   1.000
    O297    O    0.25502   0.27658   0.21643   1.000
    O298    O    0.65860   0.33304   0.19987   1.000
    O299    O    0.75502   0.27658   0.21643   1.000
    O300    O    0.11815   0.37587   0.24773   1.000
    O301    O    0.61814   0.37585   0.24773   1.000
    O302    O    0.11553   0.12760   0.25185   1.000
    O303    O    0.61554   0.12760   0.25187   1.000
    O304    O    0.75457   0.22422   0.28317   1.000
    O305    O    0.85671   0.29202   0.29095   1.000
    O306    O    0.25456   0.22421   0.28317   1.000
    O307    O    0.35671   0.29202   0.29095   1.000
    O308    O    0.15714   0.16890   0.29969   1.000
    O309    O    0.07463   0.12509   0.30351   1.000
    O310    O    0.65715   0.16890   0.29970   1.000
    O311    O    0.57464   0.12509   0.30352   1.000
    O312    O    0.50056   0.08836   0.30857   1.000
    O313    O    0.00054   0.08836   0.30857   1.000
    O314    O    0.20036   0.21359   0.35508   1.000
    O315    O    0.70036   0.21360   0.35506   1.000
    O316    O    0.03498   0.12606   0.36433   1.000
    O317    O    0.53499   0.12606   0.36434   1.000
    O318    O    0.88419   0.37982   0.34757   1.000
    O319    O    0.38418   0.37981   0.34757   1.000
    O320    O    0.32591   0.44419   0.35033   1.000
    O321    O    0.82591   0.44420   0.35034   1.000
    O322    O    0.39358   0.45665   0.39937   1.000
    O323    O    0.89357   0.45666   0.39937   1.000
    O324    O    0.55067   0.51616   0.40138   1.000
    O325    O    0.05067   0.51616   0.40138   1.000
    O326    O    0.66957   0.88082   0.41641   1.000
    O327    O    0.16956   0.88083   0.41641   1.000
    O328    O    0.73614   0.25229   0.40626   1.000
    O329    O    0.66287   0.21566   0.41620   1.000
    O330    O    0.23614   0.25227   0.40628   1.000
    O331    O    0.16286   0.21564   0.41625   1.000
    O332    O    0.08000   0.17192   0.42168   1.000
    O333    O    0.99434   0.12727   0.42744   1.000
    O334    O    0.58000   0.17193   0.42166   1.000
    O335    O    0.49436   0.12727   0.42741   1.000
    O336    O    0.06050   0.45937   0.41504   1.000
    O337    O    0.56050   0.45937   0.41505   1.000
    O338    O    0.90660   0.06484   0.43038   1.000
    O339    O    0.82809   0.02393   0.45376   1.000
    O340    O    0.40662   0.06484   0.43035   1.000
    O341    O    0.32811   0.02392   0.45377   1.000
    O342    O    0.48241   0.49274   0.43002   1.000
    O343    O    0.57041   0.52884   0.46107   1.000
    O344    O    0.98240   0.49274   0.43003   1.000
    O345    O    0.07041   0.52884   0.46106   1.000
    O346    O    0.40367   0.52597   0.44316   1.000
    O347    O    0.41200   0.46389   0.46898   1.000
    O348    O    0.90366   0.52597   0.44316   1.000
    O349    O    0.91199   0.46389   0.46899   1.000
    O350    O    0.54459   0.81503   0.45403   1.000
    O351    O    0.04459   0.81504   0.45403   1.000
    O352    O    0.62831   0.21516   0.46973   1.000
    O353    O    0.12831   0.21514   0.46974   1.000
    O354    O    0.61182   0.86902   0.45906   1.000
    O355    O    0.68007   0.93031   0.47440   1.000
    O356    O    0.11182   0.86903   0.45906   1.000
    O357    O    0.18008   0.93032   0.47441   1.000
    O358    O    0.44235   0.13340   0.48907   1.000
    O359    O    0.94233   0.13340   0.48909   1.000
    O360    O    0.55764   0.86657   0.51093   1.000
    O361    O    0.05765   0.86658   0.51094   1.000
    O362    O    0.41727   0.40059   0.49391   1.000
    O363    O    0.91727   0.40060   0.49391   1.000
    O364    O    0.64115   0.56151   0.49223   1.000
    O365    O    0.14115   0.56151   0.49223   1.000
    O366    O    0.74999   0.99999   0.50001   1.000
    O367    O    0.81991   0.06966   0.52562   1.000
    O368    O    0.25000   0.99999   0.50002   1.000
    O369    O    0.31991   0.06966   0.52563   1.000
    O370    O    0.08273   0.59938   0.50614   1.000
    O371    O    0.08801   0.53609   0.53105   1.000
    O372    O    0.58273   0.59938   0.50614   1.000
    O373    O    0.58800   0.53608   0.53106   1.000
    O374    O    0.37167   0.78483   0.53028   1.000
    O375    O    0.87167   0.78484   0.53029   1.000
    O376    O    0.35885   0.43847   0.50781   1.000
    O377    O    0.42959   0.47113   0.53897   1.000
    O378    O    0.85885   0.43847   0.50782   1.000
    O379    O    0.92959   0.47114   0.53898   1.000
    O380    O    0.67188   0.97605   0.54627   1.000
    O381    O    0.17189   0.97605   0.54627   1.000
    O382    O    0.88816   0.13095   0.54097   1.000
    O383    O    0.95539   0.18494   0.54600   1.000
    O384    O    0.38816   0.13096   0.54098   1.000
    O385    O    0.45539   0.18495   0.54601   1.000
    O386    O    0.59633   0.47400   0.55688   1.000
    O387    O    0.09633   0.47401   0.55688   1.000
    O388    O    0.59337   0.93514   0.56964   1.000
    O389    O    0.50563   0.87271   0.57258   1.000
    O390    O    0.09338   0.93514   0.56965   1.000
    O391    O    0.00564   0.87271   0.57259   1.000
    O392    O    0.83042   0.11915   0.58361   1.000
    O393    O    0.33041   0.11916   0.58362   1.000
    O394    O    0.41998   0.82805   0.57834   1.000
    O395    O    0.33712   0.78433   0.58378   1.000
    O396    O    0.91999   0.82805   0.57836   1.000
    O397    O    0.83712   0.78434   0.58378   1.000
    O398    O    0.51759   0.50723   0.57001   1.000
    O399    O    0.60642   0.54332   0.60067   1.000
    O400    O    0.01760   0.50724   0.57001   1.000
    O401    O    0.10643   0.54332   0.60067   1.000
    O402    O    0.43950   0.54061   0.58498   1.000
    O403    O    0.44933   0.48381   0.59866   1.000
    O404    O    0.93950   0.54061   0.58500   1.000
    O405    O    0.94933   0.48381   0.59866   1.000
    O406    O    0.26384   0.74770   0.59375   1.000
    O407    O    0.76384   0.74771   0.59375   1.000
    O408    O    0.46500   0.87392   0.63565   1.000
    O409    O    0.96501   0.87391   0.63526   1.000
    O410    O    0.29963   0.78639   0.64495   1.000
    O411    O    0.79963   0.78639   0.64494   1.000
    O412    O    0.67409   0.55578   0.64969   1.000
    O413    O    0.61581   0.62016   0.65243   1.000
    O414    O    0.17409   0.55578   0.64970   1.000
    O415    O    0.11582   0.62016   0.65248   1.000
    O416    O    0.64329   0.70796   0.70905   1.000
    O417    O    0.14329   0.70796   0.70909   1.000
    O418    O    0.99946   0.91161   0.69101   1.000
    O419    O    0.92537   0.87488   0.69608   1.000
    O420    O    0.49944   0.91162   0.69141   1.000
    O421    O    0.42535   0.87489   0.69647   1.000
    O422    O    0.84286   0.83107   0.70033   1.000
    O423    O    0.74543   0.77576   0.71685   1.000
    O424    O    0.34284   0.83108   0.70034   1.000
    O425    O    0.24543   0.77577   0.71687   1.000
    O426    O    0.38446   0.87238   0.74817   1.000
    O427    O    0.88448   0.87236   0.74818   1.000
    O428    O    0.88184   0.62410   0.75232   1.000
    O429    O    0.38185   0.62412   0.75232   1.000
    O430    O    0.74498   0.72339   0.78361   1.000
    O431    O    0.64331   0.79218   0.79098   1.000
    O432    O    0.24498   0.72340   0.78361   1.000
    O433    O    0.14334   0.79225   0.79098   1.000
    O434    O    0.34139   0.66693   0.80017   1.000
    O435    O    0.42346   0.62246   0.80388   1.000
    O436    O    0.84139   0.66692   0.80017   1.000
    O437    O    0.92345   0.62245   0.80388   1.000
    O438    O    0.49719   0.58518   0.80881   1.000
    O439    O    0.99719   0.58517   0.80881   1.000
    O440    O    0.29933   0.71315   0.85559   1.000
    O441    O    0.79933   0.71315   0.85559   1.000
    O442    O    0.96388   0.62443   0.86463   1.000
    O443    O    0.46388   0.62443   0.86463   1.000
    O444    O    0.11681   0.88018   0.84793   1.000
    O445    O    0.61677   0.88004   0.84794   1.000
    O446    O    0.17718   0.94344   0.85226   1.000
    O447    O    0.67721   0.94324   0.85229   1.000
    O448    O    0.10783   0.95655   0.90016   1.000
    O449    O    0.60782   0.95644   0.90016   1.000
    O450    O    0.45098   0.01628   0.90111   1.000
    O451    O    0.95098   0.01637   0.90115   1.000
    O452    O    0.82939   0.37983   0.91663   1.000
    O453    O    0.32938   0.37984   0.91665   1.000
    O454    O    0.76459   0.75318   0.90686   1.000
    O455    O    0.83752   0.71610   0.91670   1.000
    O456    O    0.26459   0.75319   0.90686   1.000
    O457    O    0.33752   0.71610   0.91670   1.000
    O458    O    0.42001   0.67184   0.92202   1.000
    O459    O    0.50537   0.62675   0.92767   1.000
    O460    O    0.92001   0.67185   0.92202   1.000
    O461    O    0.00536   0.62675   0.92767   1.000
    O462    O    0.94056   0.95966   0.91479   1.000
    O463    O    0.44056   0.95958   0.91478   1.000
    O464    O    0.59302   0.56431   0.93058   1.000
    O465    O    0.67162   0.52356   0.95388   1.000
    O466    O    0.09302   0.56431   0.93058   1.000
    O467    O    0.17162   0.52357   0.95389   1.000
    O468    O    0.51866   0.99276   0.93020   1.000
    O469    O    0.43044   0.02904   0.96069   1.000
    O470    O    0.01867   0.99282   0.93020   1.000
    O471    O    0.93046   0.02909   0.96071   1.000
    O472    O    0.45447   0.31433   0.95114   1.000
    O473    O    0.95448   0.31432   0.95413   1.000
    O474    O    0.09744   0.02586   0.94388   1.000
    O475    O    0.59744   0.02580   0.94385   1.000
    O476    O    0.88745   0.36842   0.95916   1.000
    O477    O    0.38744   0.36843   0.95917   1.000
    O478    O    0.35944   0.06180   0.99138   1.000
    O479    O    0.85946   0.06185   0.99142   1.000
loop_
    _geom_bond_atom_site_label_1
    _geom_bond_atom_site_label_2
    _geom_bond_distance
    _geom_bond_site_symmetry_2
    _ccdc_geom_bond_type
    C28    O228      0.53506  1_554   S
    C120   O228      0.53506      .   S
    C29    O229      0.53506  1_554   S
    C121   O229      0.53506      .   S
    C175   O230      0.86984      .   S
    C203   O230      0.86984      .   S
    C175   O231      0.69558  1_554   S
    C193   O231      0.69558      .   S
    C175   O232      0.71966  1_554   S
    C123   O232      0.71966      .   S
    C104   O233      0.55023      .   S
    C12    O233      0.55023      .   S
    C104   O234      0.76535      .   S
    C106   O234      0.76535  1_545   S
    C104   O235      0.77076  1_554   S
    C100   O235      0.77076      .   S
    C104   O236      0.55153  1_554   S
    C14    O236      0.55153      .   S
    C105   O237      0.55023      .   S
    C13    O237      0.55023      .   S
    C105   O238      0.76534      .   S
    C107   O238      0.76534  1_545   S
    C105   O239      0.77047  1_554   S
    C101   O239      0.77047      .   S
    C105   O240      0.55152  1_554   S
    C15    O240      0.55152      .   S
    C174   O241      0.86921      .   S
    C202   O241      0.86921      .   S
    C174   O242      0.69596  1_554   S
    C192   O242      0.69596      .   S
    C174   O243      0.71984      .   S
    C122   O243      0.71984  1_556   S
    C58    O244      0.55152      .   S
    C156   O244      0.55152  1_556   S
    C59    O245      0.55152      .   S
    C157   O245      0.55152  1_556   S
    C135   O246      0.70345      .   S
    C141   O246      0.70345      .   S
    C135   O247      0.54390      .   S
    C43    O247      0.54390      .   S
    C135   O248      0.69456  1_554   S
    C125   O248      0.69456      .   S
    C134   O249      0.70306      .   S
    C140   O249      0.70306      .   S
    C134   O250      0.54374      .   S
    C42    O250      0.54374      .   S
    C134   O251      0.69464  1_554   S
    C124   O251      0.69464      .   S
    C53    O252      0.55148      .   S
    C153   O252      0.55148  1_545   S
    C52    O253      0.55149      .   S
    C152   O253      0.55149  1_545   S
    C177   O254      0.87083      .   S
    C203   O254      0.87083      .   S
    C177   O255      0.72673      .   S
    C188   O255      0.72673  1_455   S
    C177   O256      0.69456      .   S
    C187   O256      0.69456  1_556   S
    C176   O257      0.87083      .   S
    C202   O257      0.87083      .   S
    C176   O258      0.72670      .   S
    C189   O258      0.72670      .   S
    C176   O259      0.69457      .   S
    C186   O259      0.69457  1_556   S
    C140   O260      0.54514      .   S
    C44    O260      0.54514      .   S
    C140   O261      0.69558      .   S
    C122   O261      0.69558  1_556   S
    C141   O262      0.54440      .   S
    C45    O262      0.54440      .   S
    C141   O263      0.69600      .   S
    C123   O263      0.69600  1_556   S
    C172   O264      0.70515      .   S
    C188   O264      0.70515      .   S
    C172   O265      0.69207      .   S
    C180   O265      0.69207      .   S
    C172   O266      0.54483      .   S
    C72    O266      0.54483  1_556   S
    C173   O267      0.70519      .   S
    C189   O267      0.70519      .   S
    C173   O268      0.69256      .   S
    C181   O268      0.69256      .   S
    C173   O269      0.54414      .   S
    C73    O269      0.54414  1_556   S
    C153   O270      0.76735      .   S
    C106   O270      0.76735  1_455   S
    C153   O271      0.76468      .   S
    C165   O271      0.76468      .   S
    C153   O272      0.77045      .   S
    C157   O272      0.77045  1_556   S
    C152   O273      0.76729      .   S
    C107   O273      0.76729      .   S
    C152   O274      0.76499      .   S
    C164   O274      0.76499      .   S
    C152   O275      0.77052      .   S
    C156   O275      0.77052  1_556   S
    C107   O276      0.55030      .   S
    C19    O276      0.55030      .   S
    C107   O277      0.55065  1_545   S
    C17    O277      0.55065      .   S
    C106   O278      0.55030      .   S
    C18    O278      0.55030      .   S
    C106   O279      0.55064  1_545   S
    C16    O279      0.55064      .   S
    C77    O280      0.54549      .   S
    C181   O280      0.54549      .   S
    C76    O281      0.54412      .   S
    C180   O281      0.54412      .   S
    C188   O282      0.70401      .   S
    C170   O282      0.70401      .   S
    C189   O283      0.70392      .   S
    C171   O283      0.70392      .   S
    C180   O284      0.67659      .   S
    C210   O284      0.67659      .   S
    C181   O285      0.67589      .   S
    C211   O285      0.67589      .   S
    C165   O286      0.62385      .   S
    C221   O286      0.62385      .   S
    C165   O287      0.65476      .   S
    C223   O287      0.65476      .   S
    C164   O288      0.62362      .   S
    C220   O288      0.62362      .   S
    C164   O289      0.65466      .   S
    C222   O289      0.65466      .   S
    C222   O290      0.99168      .   S
    C2     O290      0.99168      .   S
    C223   O291      0.99162      .   S
    C3     O291      0.99162      .   S
    C171   O292      0.54522      .   S
    C70    O292      0.54522      .   S
    C171   O293      0.69259      .   S
    C195   O293      0.69259      .   S
    C170   O294      0.54511      .   S
    C71    O294      0.54511  1_655   S
    C170   O295      0.69259      .   S
    C194   O295      0.69259      .   S
    C210   O296      0.67560      .   S
    C194   O296      0.67560      .   S
    C210   O297      1.04664      .   S
    C2     O297      1.04664      .   S
    C211   O298      0.67560      .   S
    C195   O298      0.67560      .   S
    C211   O299      1.04667      .   S
    C3     O299      1.04667      .   S
    C194   O300      0.54323      .   S
    C90    O300      0.54323      .   S
    C195   O301      0.54322      .   S
    C91    O301      0.54322      .   S
    C68    O302      0.54311      .   S
    C168   O302      0.54311      .   S
    C69    O303      0.54319      .   S
    C169   O303      0.54319      .   S
    C3     O304      1.04612      .   S
    C209   O304      1.04612      .   S
    C3     O305      0.99248      .   S
    C227   O305      0.99248      .   S
    C2     O306      1.04612      .   S
    C208   O306      1.04612      .   S
    C2     O307      0.99245      .   S
    C226   O307      0.99245      .   S
    C168   O308      0.67557      .   S
    C208   O308      0.67557      .   S
    C168   O309      0.69263      .   S
    C144   O309      0.69263      .   S
    C169   O310      0.67555      .   S
    C209   O310      0.67555      .   S
    C169   O311      0.69257      .   S
    C145   O311      0.69257      .   S
    C48    O312      0.54524      .   S
    C145   O312      0.54524      .   S
    C49    O313      0.54523  1_655   S
    C144   O313      0.54523      .   S
    C208   O314      0.67594      .   S
    C154   O314      0.67594      .   S
    C209   O315      0.67533      .   S
    C155   O315      0.67533      .   S
    C144   O316      0.70382      .   S
    C162   O316      0.70382      .   S
    C145   O317      0.70382      .   S
    C163   O317      0.70382      .   S
    C227   O318      0.65441      .   S
    C191   O318      0.65441      .   S
    C226   O319      0.65441      .   S
    C190   O319      0.65441      .   S
    C224   O320      0.62380      .   S
    C190   O320      0.62380      .   S
    C225   O321      0.62371      .   S
    C191   O321      0.62371      .   S
    C190   O322      0.76515      .   S
    C178   O322      0.76515      .   S
    C191   O323      0.76518      .   S
    C179   O323      0.76518      .   S
    C39    O324      0.55058      .   S
    C133   O324      0.55058      .   S
    C38    O325      0.55062      .   S
    C132   O325      0.55062      .   S
    C23    O326      0.54440      .   S
    C115   O326      0.54440      .   S
    C22    O327      0.54447      .   S
    C114   O327      0.54447      .   S
    C155   O328      0.54449      .   S
    C55    O328      0.54449      .   S
    C155   O329      0.69262      .   S
    C147   O329      0.69262      .   S
    C154   O330      0.54433      .   S
    C54    O330      0.54433      .   S
    C154   O331      0.69249      .   S
    C146   O331      0.69249      .   S
    C162   O332      0.70512      .   S
    C146   O332      0.70512      .   S
    C162   O333      0.72666  1_455   S
    C151   O333      0.72666      .   S
    C163   O334      0.70499      .   S
    C147   O334      0.70499      .   S
    C163   O335      0.72616      .   S
    C150   O335      0.72616      .   S
    C40    O336      0.55041      .   S
    C132   O336      0.55041      .   S
    C41    O337      0.55041      .   S
    C133   O337      0.55041      .   S
    C201   O338      0.87073      .   S
    C151   O338      0.87073      .   S
    C201   O339      0.86918      .   S
    C149   O339      0.86918      .   S
    C200   O340      0.87058      .   S
    C150   O340      0.87058      .   S
    C200   O341      0.86921      .   S
    C148   O341      0.86921      .   S
    C133   O342      0.76762      .   S
    C178   O342      0.76762      .   S
    C133   O343      0.76547      .   S
    C131   O343      0.76547      .   S
    C132   O344      0.76767  1_455   S
    C179   O344      0.76767      .   S
    C132   O345      0.76542      .   S
    C130   O345      0.76542      .   S
    C178   O346      0.55143      .   S
    C74    O346      0.55143      .   S
    C178   O347      0.77065      .   S
    C182   O347      0.77065      .   S
    C179   O348      0.55143      .   S
    C75    O348      0.55143      .   S
    C179   O349      0.77061      .   S
    C183   O349      0.77061      .   S
    C21    O350      0.54394      .   S
    C109   O350      0.54394      .   S
    C20    O351      0.54391      .   S
    C108   O351      0.54391      .   S
    C147   O352      0.54470      .   S
    C51    O352      0.54470      .   S
    C146   O353      0.54418      .   S
    C50    O353      0.54418      .   S
    C115   O354      0.70349      .   S
    C109   O354      0.70349      .   S
    C115   O355      0.69614      .   S
    C97    O355      0.69614      .   S
    C114   O356      0.70344      .   S
    C108   O356      0.70344      .   S
    C114   O357      0.69614      .   S
    C96    O357      0.69614      .   S
    C150   O358      0.69550      .   S
    C160   O358      0.69550      .   S
    C151   O359      0.69482      .   S
    C161   O359      0.69482      .   S
    C109   O360      0.69475      .   S
    C99    O360      0.69475      .   S
    C108   O361      0.69482      .   S
    C98    O361      0.69482      .   S
    C80    O362      0.55153      .   S
    C182   O362      0.55153      .   S
    C81    O363      0.55153      .   S
    C183   O363      0.55153      .   S
    C35    O364      0.55032      .   S
    C131   O364      0.55032      .   S
    C34    O365      0.55028      .   S
    C130   O365      0.55028      .   S
    C149   O366      0.71986  1_545   S
    C97    O366      0.71986      .   S
    C149   O367      0.69614      .   S
    C167   O367      0.69614      .   S
    C148   O368      0.71987  1_545   S
    C96    O368      0.71987      .   S
    C148   O369      0.69613      .   S
    C166   O369      0.69613      .   S
    C130   O370      0.55153      .   S
    C36    O370      0.55153      .   S
    C130   O371      0.77062      .   S
    C126   O371      0.77062      .   S
    C131   O372      0.55153      .   S
    C37    O372      0.55153      .   S
    C131   O373      0.77057      .   S
    C127   O373      0.77057      .   S
    C6     O374      0.54418      .   S
    C94    O374      0.54418      .   S
    C7     O375      0.54418      .   S
    C95    O375      0.54418      .   S
    C182   O376      0.55029      .   S
    C78    O376      0.55029      .   S
    C182   O377      0.76541      .   S
    C184   O377      0.76541      .   S
    C183   O378      0.55029      .   S
    C79    O378      0.55029      .   S
    C183   O379      0.76542      .   S
    C185   O379      0.76542      .   S
    C97    O380      0.86920      .   S
    C197   O380      0.86920      .   S
    C96    O381      0.86918      .   S
    C196   O381      0.86918      .   S
    C161   O382      0.70344      .   S
    C167   O382      0.70344      .   S
    C161   O383      0.54390      .   S
    C65    O383      0.54390      .   S
    C160   O384      0.70345      .   S
    C166   O384      0.70345      .   S
    C160   O385      0.54390      .   S
    C64    O385      0.54390      .   S
    C31    O386      0.55143      .   S
    C127   O386      0.55143      .   S
    C30    O387      0.55143      .   S
    C126   O387      0.55143      .   S
    C99    O388      0.87073      .   S
    C197   O388      0.87073      .   S
    C99    O389      0.72663      .   S
    C110   O389      0.72663      .   S
    C98    O390      0.87073      .   S
    C196   O390      0.87073      .   S
    C98    O391      0.72665      .   S
    C111   O391      0.72665  1_655   S
    C167   O392      0.54438      .   S
    C67    O392      0.54438      .   S
    C166   O393      0.54440      .   S
    C66    O393      0.54440      .   S
    C94    O394      0.70513      .   S
    C110   O394      0.70513      .   S
    C94    O395      0.69253      .   S
    C102   O395      0.69253      .   S
    C95    O396      0.70512      .   S
    C111   O396      0.70512      .   S
    C95    O397      0.69247      .   S
    C103   O397      0.69247      .   S
    C127   O398      0.76762      .   S
    C184   O398      0.76762      .   S
    C127   O399      0.76516      .   S
    C139   O399      0.76516      .   S
    C126   O400      0.76766      .   S
    C185   O400      0.76766  1_655   S
    C126   O401      0.76519      .   S
    C138   O401      0.76519      .   S
    C184   O402      0.55040      .   S
    C84    O402      0.55040      .   S
    C184   O403      0.55066      .   S
    C82    O403      0.55066      .   S
    C185   O404      0.55041      .   S
    C85    O404      0.55041      .   S
    C185   O405      0.55061      .   S
    C83    O405      0.55061      .   S
    C10    O406      0.54434      .   S
    C102   O406      0.54434      .   S
    C11    O407      0.54431      .   S
    C103   O407      0.54431      .   S
    C110   O408      0.70312      .   S
    C92    O408      0.70312      .   S
    C111   O409      0.69605      .   S
    C93    O409      0.69605      .   S
    C102   O410      0.67594      .   S
    C204   O410      0.67594      .   S
    C103   O411      0.67568      .   S
    C205   O411      0.67568      .   S
    C139   O412      0.62369      .   S
    C217   O412      0.62369      .   S
    C139   O413      0.65431      .   S
    C219   O413      0.65431      .   S
    C138   O414      0.62369      .   S
    C216   O414      0.62369      .   S
    C138   O415      0.65442      .   S
    C218   O415      0.65442      .   S
    C219   O416      0.99278      .   S
    C1     O416      0.99278      .   S
    C218   O417      0.99238      .   S
    C0     O417      0.99238      .   S
    C93    O418      0.54826      .   S
    C4     O418      0.54826  1_455   S
    C93    O419      0.69768      .   S
    C117   O419      0.69768      .   S
    C92    O420      0.54545      .   S
    C5     O420      0.54545      .   S
    C92    O421      0.69306      .   S
    C116   O421      0.69306      .   S
    C205   O422      0.67566      .   S
    C117   O422      0.67566      .   S
    C205   O423      1.04629      .   S
    C1     O423      1.04629      .   S
    C204   O424      0.67555      .   S
    C116   O424      0.67555      .   S
    C204   O425      1.04605      .   S
    C0     O425      1.04605      .   S
    C116   O426      0.54319      .   S
    C24    O426      0.54319      .   S
    C117   O427      0.54319      .   S
    C25    O427      0.54319      .   S
    C47    O428      0.54323      .   S
    C143   O428      0.54323      .   S
    C46    O429      0.54322      .   S
    C142   O429      0.54322      .   S
    C1     O430      1.04671      .   S
    C207   O430      1.04671      .   S
    C1     O431      0.99172      .   S
    C215   O431      0.99172      .   S
    C0     O432      1.04674      .   S
    C206   O432      1.04674      .   S
    C0     O433      0.99170      .   S
    C214   O433      0.99170      .   S
    C142   O434      0.67560      .   S
    C206   O434      0.67560      .   S
    C142   O435      0.69260      .   S
    C118   O435      0.69260      .   S
    C143   O436      0.67560      .   S
    C207   O436      0.67560      .   S
    C143   O437      0.69259      .   S
    C119   O437      0.69259      .   S
    C27    O438      0.54522      .   S
    C118   O438      0.54522      .   S
    C26    O439      0.54528  1_455   S
    C119   O439      0.54528      .   S
    C206   O440      0.67589      .   S
    C128   O440      0.67589      .   S
    C207   O441      0.67590      .   S
    C129   O441      0.67590      .   S
    C119   O442      0.70392      .   S
    C137   O442      0.70392      .   S
    C118   O443      0.70392      .   S
    C136   O443      0.70392      .   S
    C214   O444      0.65468      .   S
    C112   O444      0.65468      .   S
    C215   O445      0.65466      .   S
    C113   O445      0.65466      .   S
    C212   O446      0.62378      .   S
    C112   O446      0.62378      .   S
    C213   O447      0.62364      .   S
    C113   O447      0.62364      .   S
    C112   O448      0.76478      .   S
    C100   O448      0.76478      .   S
    C113   O449      0.76500      .   S
    C101   O449      0.76500      .   S
    C60    O450      0.55068      .   S
    C158   O450      0.55068  1_565   S
    C61    O451      0.55065      .   S
    C159   O451      0.55065  1_565   S
    C89    O452      0.54440      .   S
    C193   O452      0.54440      .   S
    C88    O453      0.54440      .   S
    C192   O453      0.54440      .   S
    C129   O454      0.54430      .   S
    C33    O454      0.54430      .   S
    C129   O455      0.69255      .   S
    C121   O455      0.69255      .   S
    C128   O456      0.54431      .   S
    C32    O456      0.54431      .   S
    C128   O457      0.69257      .   S
    C120   O457      0.69257      .   S
    C136   O458      0.70518      .   S
    C120   O458      0.70518      .   S
    C136   O459      0.72671      .   S
    C125   O459      0.72671      .   S
    C137   O460      0.70518      .   S
    C121   O460      0.70518      .   S
    C137   O461      0.72672  1_655   S
    C124   O461      0.72672      .   S
    C63    O462      0.55029      .   S
    C159   O462      0.55029      .   S
    C62    O463      0.55029      .   S
    C158   O463      0.55029      .   S
    C199   O464      0.87085      .   S
    C125   O464      0.87085      .   S
    C199   O465      0.86921      .   S
    C123   O465      0.86921      .   S
    C198   O466      0.87083      .   S
    C124   O466      0.87083      .   S
    C198   O467      0.86920      .   S
    C122   O467      0.86920      .   S
    C158   O468      0.76731      .   S
    C101   O468      0.76731      .   S
    C158   O469      0.76532  1_565   S
    C156   O469      0.76532      .   S
    C159   O470      0.76730  1_655   S
    C100   O470      0.76730      .   S
    C159   O471      0.76535  1_565   S
    C157   O471      0.76535      .   S
    C86    O472      0.56751      .   S
    C186   O472      0.56751      .   S
    C87    O473      0.54391      .   S
    C187   O473      0.54391      .   S
    C100   O474      0.55148  1_565   S
    C8     O474      0.55148      .   S
    C101   O475      0.55149  1_565   S
    C9     O475      0.55149      .   S
    C193   O476      0.70343      .   S
    C187   O476      0.70343      .   S
    C192   O477      0.70345      .   S
    C186   O477      0.70345      .   S
    C56    O478      0.55021      .   S
    C156   O478      0.55021      .   S
    C57    O479      0.55023      .   S
    C157   O479      0.55023      .   S
