# CIF file generated by openbabel 2.4.90, see http://openbabel.sf.net
data_I
_chemical_name_common ''
_cell_length_a 12.811
_cell_length_b 14.28
_cell_length_c 14.19
_cell_angle_alpha 78.507
_cell_angle_beta 63.467
_cell_angle_gamma 63.527
_space_group_name_H-M_alt 'P 1'
_space_group_name_Hall 'P 1'
loop_
    _symmetry_equiv_pos_as_xyz
    x,y,z
loop_
    _atom_site_label
    _atom_site_type_symbol
    _atom_site_fract_x
    _atom_site_fract_y
    _atom_site_fract_z
    _atom_site_occupancy
    Lv0     Lv   0.28059   0.76166   0.23453   1.000
    Lv1     Lv   0.28068   0.23324   0.76309   1.000
    Lv2     Lv   0.78411   0.76263   0.76412   1.000
    Lv3     Lv   0.79550   0.26837   0.73430   1.000
    Lv4     Lv   0.28976   0.73886   0.73852   1.000
    Lv5     Lv   0.31538   0.23066   0.23141   1.000
    Lv6     Lv   0.76246   0.26675   0.26664   1.000
    Lv7     Lv   0.79546   0.73549   0.26774   1.000
