# CIF file generated by openbabel 2.4.90, see http://openbabel.sf.net
data_I
_chemical_name_common ''
_cell_length_a 12.811
_cell_length_b 14.28
_cell_length_c 14.19
_cell_angle_alpha 78.507
_cell_angle_beta 63.467
_cell_angle_gamma 63.527
_space_group_name_H-M_alt 'P 1'
_space_group_name_Hall 'P 1'
loop_
    _symmetry_equiv_pos_as_xyz
    x,y,z
loop_
    _atom_site_label
    _atom_site_type_symbol
    _atom_site_fract_x
    _atom_site_fract_y
    _atom_site_fract_z
    _atom_site_occupancy
    C0      C    0.92078   0.33001   0.19170   1.000
    C1      C    0.15632   0.30684   0.16873   1.000
    C2      C    0.43981   0.67194   0.81058   1.000
    C3      C    0.63476   0.69021   0.82975   1.000
    C4      C    0.36255   0.30892   0.82793   1.000
    C5      C    0.57429   0.33173   0.80743   1.000
    C6      C    0.50171   0.68929   0.17048   1.000
    C7      C    0.71354   0.67032   0.19233   1.000
    C8      C    0.43963   0.81074   0.67233   1.000
    C9      C    0.63475   0.82887   0.69134   1.000
    C10     C    0.92119   0.19093   0.32969   1.000
    C11     C    0.15670   0.16776   0.30673   1.000
    C12     C    0.50184   0.16936   0.69053   1.000
    C13     C    0.71364   0.19203   0.67012   1.000
    C14     C    0.36258   0.82757   0.30918   1.000
    C15     C    0.57427   0.80814   0.33150   1.000
    C16     C    0.97889   0.25452   0.25482   1.000
    C17     C    0.09860   0.24328   0.24366   1.000
    C18     C    0.48714   0.74609   0.74640   1.000
    C19     C    0.58738   0.75477   0.75554   1.000
    C20     C    0.48400   0.24500   0.75395   1.000
    C21     C    0.59219   0.25599   0.74409   1.000
    C22     C    0.48394   0.75345   0.24555   1.000
    C23     C    0.59212   0.74417   0.25625   1.000
    Br24    Br   0.03790   0.58679   0.91303   1.000
    Br25    Br   0.53899   0.41166   0.08631   1.000
    Br26    Br   0.20112   0.58442   0.08910   1.000
    Br27    Br   0.87546   0.41221   0.91327   1.000
    Br28    Br   0.53919   0.08579   0.41210   1.000
    Br29    Br   0.03712   0.91373   0.58820   1.000
    Br30    Br   0.87540   0.91324   0.41214   1.000
    Br31    Br   0.20094   0.08845   0.58540   1.000
    N32     N    0.09804   0.37661   0.11035   1.000
    N33     N    0.97868   0.38887   0.12260   1.000
    N34     N    0.58660   0.62149   0.88890   1.000
    N35     N    0.48858   0.61190   0.87880   1.000
    N36     N    0.45760   0.39023   0.87644   1.000
    N37     N    0.35075   0.37826   0.88728   1.000
    N38     N    0.72537   0.61088   0.12295   1.000
    N39     N    0.61847   0.62089   0.11154   1.000
    N40     N    0.58649   0.88846   0.62250   1.000
    N41     N    0.48829   0.87901   0.61269   1.000
    N42     N    0.09852   0.10927   0.37627   1.000
    N43     N    0.97924   0.12148   0.38837   1.000
    N44     N    0.72552   0.12220   0.61128   1.000
    N45     N    0.61862   0.11037   0.62203   1.000
    N46     N    0.45760   0.87698   0.39000   1.000
    N47     N    0.35076   0.88725   0.37833   1.000
loop_
    _geom_bond_atom_site_label_1
    _geom_bond_atom_site_label_2
    _geom_bond_distance
    _geom_bond_site_symmetry_2
    _ccdc_geom_bond_type
    N32    N33       1.39106  1_455   S
    N32    C1        1.34049      .   S
    N39    N38       1.39161      .   S
    N39    C6        1.34026      .   S
    N33    C0        1.34002      .   S
    N38    C7        1.34079      .   S
    C1     C17       1.41864      .   S
    C6     C22       1.41854      .   S
    C0     C16       1.41914      .   S
    C7     C23       1.41861      .   S
    C17    C16       1.40588  1_455   S
    C17    C11       1.41871      .   S
    C22    C23       1.40625      .   S
    C22    C14       1.41855      .   S
    C16    C10       1.41848      .   S
    C23    C15       1.41814      .   S
    C11    N42       1.34031      .   S
    C14    N47       1.34071      .   S
    C10    N43       1.34039      .   S
    C15    N46       1.34019      .   S
    N42    N43       1.39102  1_455   S
    N47    N46       1.39140      .   S
    N44    N45       1.39153      .   S
    N44    C13       1.34082      .   S
    N41    N40       1.39125      .   S
    N41    C8        1.34054      .   S
    N45    C12       1.34018      .   S
    N40    C9        1.34154      .   S
    C13    C21       1.41868      .   S
    C8     C18       1.41825      .   S
    C12    C20       1.41854      .   S
    C9     C19       1.41862      .   S
    C21    C20       1.40619      .   S
    C21    C5        1.41855      .   S
    C18    C19       1.40644      .   S
    C18    C2        1.41878      .   S
    C20    C4        1.41860      .   S
    C19    C3        1.41864      .   S
    C5     N36       1.34026      .   S
    C2     N35       1.33962      .   S
    C4     N37       1.34075      .   S
    C3     N34       1.34044      .   S
    N36    N37       1.39164      .   S
    N35    N34       1.39223      .   S
