# CIF file generated by openbabel 2.4.90, see http://openbabel.sf.net
data_I
_chemical_name_common ''
_cell_length_a 15.74
_cell_length_b 23.167
_cell_length_c 13.534
_cell_angle_alpha 90.001
_cell_angle_beta 90
_cell_angle_gamma 109.791
_space_group_name_H-M_alt 'P 1'
_space_group_name_Hall 'P 1'
loop_
    _symmetry_equiv_pos_as_xyz
    x,y,z
loop_
    _atom_site_label
    _atom_site_type_symbol
    _atom_site_fract_x
    _atom_site_fract_y
    _atom_site_fract_z
    _atom_site_occupancy
    Cd0     Cd   0.14260   0.65669   0.25000   1.000
    Cd1     Cd   0.64260   0.15668   0.25000   1.000
    Cd2     Cd   0.64260   0.65669   0.25000   1.000
    Cd3     Cd   0.35742   0.34333   0.75000   1.000
    Cd4     Cd   0.35742   0.84334   0.75000   1.000
    Cd5     Cd   0.85742   0.34333   0.75000   1.000
    Cd6     Cd   0.85742   0.84334   0.75000   1.000
    Cd7     Cd   0.48594   0.34403   0.24999   1.000
    Cd8     Cd   0.48594   0.84404   0.24999   1.000
    Cd9     Cd   0.98594   0.34403   0.20000   1.000
    Cd10    Cd   0.98594   0.84404   0.24999   1.000
    Cd11    Cd   0.01409   0.15598   0.75000   1.000
    Cd12    Cd   0.01409   0.65599   0.75000   1.000
    Cd13    Cd   0.51408   0.15598   0.75000   1.000
    Cd14    Cd   0.51408   0.65599   0.75000   1.000
    Cd15    Cd   0.25001   1.00000   0.99999   1.000
    Cd16    Cd   0.25001   0.50001   0.99999   1.000
    Cd17    Cd   0.75001   1.00000   0.00000   1.000
    Cd18    Cd   0.75001   0.50001   0.00000   1.000
    Cd19    Cd   0.25001   0.00000   0.50000   1.000
    Cd20    Cd   0.25001   0.50001   0.50000   1.000
    Cd21    Cd   0.75001   0.00000   0.50000   1.000
    Cd22    Cd   0.75001   0.50001   0.50000   1.000
    Cd23    Cd   0.14260   0.15668   0.25000   1.000
    C24     C    0.17504   0.10601   0.12242   1.000
    C25     C    0.17504   0.60601   0.12242   1.000
    C26     C    0.67504   0.10600   0.12242   1.000
    C27     C    0.67504   0.60601   0.12242   1.000
    C28     C    0.32498   0.39401   0.62242   1.000
    C29     C    0.32498   0.89401   0.62242   1.000
    C30     C    0.82498   0.39400   0.62242   1.000
    C31     C    0.82498   0.89401   0.62242   1.000
    C32     C    0.06915   0.89451   0.37751   1.000
    C33     C    0.56915   0.39451   0.37751   1.000
    C34     C    0.56915   0.89451   0.37751   1.000
    C35     C    0.43088   0.10551   0.87752   1.000
    C36     C    0.43088   0.60552   0.87752   1.000
    C37     C    0.93088   0.10551   0.87752   1.000
    C38     C    0.93088   0.60552   0.87752   1.000
    C39     C    0.32499   0.39401   0.87758   1.000
    C40     C    0.32499   0.89402   0.87758   1.000
    C41     C    0.82498   0.39401   0.87758   1.000
    C42     C    0.82498   0.89401   0.87758   1.000
    C43     C    0.17504   0.10601   0.37758   1.000
    C44     C    0.17504   0.60601   0.37758   1.000
    C45     C    0.67504   0.10601   0.37758   1.000
    C46     C    0.67504   0.60601   0.37758   1.000
    C47     C    0.43088   0.10551   0.62249   1.000
    C48     C    0.43088   0.60551   0.62249   1.000
    C49     C    0.93088   0.10551   0.62240   1.000
    C50     C    0.93088   0.60552   0.62249   1.000
    C51     C    0.06914   0.39450   0.12248   1.000
    C52     C    0.06915   0.89451   0.12248   1.000
    C53     C    0.56914   0.39450   0.12248   1.000
    C54     C    0.56914   0.89451   0.12248   1.000
    C55     C    0.06248   0.21742   0.25000   1.000
    C56     C    0.06248   0.71742   0.25000   1.000
    C57     C    0.56248   0.21742   0.25000   1.000
    C58     C    0.56248   0.71742   0.25000   1.000
    C59     C    0.43755   0.28260   0.75000   1.000
    C60     C    0.43755   0.78260   0.75000   1.000
    C61     C    0.93755   0.28260   0.75000   1.000
    C62     C    0.93755   0.78260   0.75000   1.000
    C63     C    0.34525   0.28332   0.25000   1.000
    C64     C    0.34525   0.78333   0.25000   1.000
    C65     C    0.84525   0.28332   0.25000   1.000
    C66     C    0.84525   0.78333   0.25000   1.000
    C67     C    0.15477   0.21669   0.75000   1.000
    C68     C    0.15478   0.71670   0.75000   1.000
    C69     C    0.65477   0.21669   0.75000   1.000
    C70     C    0.65477   0.71670   0.75000   1.000
    Ts71    Ts   0.18729   0.68530   0.25000   1.000
    Ts72    Ts   0.68729   0.18529   0.25000   1.000
    Ts73    Ts   0.68729   0.68530   0.25000   1.000
    Ts74    Ts   0.31274   0.31472   0.75000   1.000
    Ts75    Ts   0.31274   0.81473   0.75000   1.000
    Ts76    Ts   0.81273   0.31472   0.75000   1.000
    Ts77    Ts   0.81273   0.81473   0.75000   1.000
    Ts78    Ts   0.50203   0.31537   0.23333   1.000
    Ts79    Ts   0.50203   0.81538   0.23333   1.000
    Ts80    Ts   0.00203   0.31537   0.20000   1.000
    Ts81    Ts   0.00203   0.81538   0.23333   1.000
    Ts82    Ts   0.99799   0.18464   0.75000   1.000
    Ts83    Ts   0.99799   0.68465   0.75000   1.000
    Ts84    Ts   0.49799   0.18464   0.75000   1.000
    Ts85    Ts   0.49799   0.68465   0.75000   1.000
    Ts86    Ts   0.23239   0.02474   0.02273   1.000
    Ts87    Ts   0.29229   0.02461   0.97718   1.000
    Ts88    Ts   0.26763   0.97526   0.97723   1.000
    Ts89    Ts   0.20773   0.97539   0.02280   1.000
    Ts90    Ts   0.22138   0.99991   0.94701   1.000
    Ts91    Ts   0.27865   0.00009   0.05298   1.000
    Ts92    Ts   0.23239   0.52475   0.02273   1.000
    Ts93    Ts   0.29229   0.52462   0.97718   1.000
    Ts94    Ts   0.26763   0.47526   0.97723   1.000
    Ts95    Ts   0.20773   0.47540   0.02280   1.000
    Ts96    Ts   0.22138   0.49992   0.94701   1.000
    Ts97    Ts   0.27865   0.50010   0.05298   1.000
    Ts98    Ts   0.73239   0.02474   0.02274   1.000
    Ts99    Ts   0.79229   0.02461   0.97719   1.000
    Ts100   Ts   0.76763   0.97526   0.97726   1.000
    Ts101   Ts   0.70773   0.97539   0.02281   1.000
    Ts102   Ts   0.72138   0.99991   0.94702   1.000
    Ts103   Ts   0.77865   0.00009   0.05298   1.000
    Ts104   Ts   0.73239   0.52475   0.02274   1.000
    Ts105   Ts   0.79229   0.52462   0.97719   1.000
    Ts106   Ts   0.76763   0.47526   0.97726   1.000
    Ts107   Ts   0.70773   0.47540   0.02281   1.000
    Ts108   Ts   0.72138   0.49992   0.94702   1.000
    Ts109   Ts   0.77865   0.50010   0.05298   1.000
    Ts110   Ts   0.26763   0.97526   0.52274   1.000
    Ts111   Ts   0.20773   0.97540   0.47719   1.000
    Ts112   Ts   0.23239   0.02475   0.47726   1.000
    Ts113   Ts   0.29229   0.02461   0.52281   1.000
    Ts114   Ts   0.22138   0.99991   0.55298   1.000
    Ts115   Ts   0.27865   0.00009   0.44702   1.000
    Ts116   Ts   0.26763   0.47526   0.52274   1.000
    Ts117   Ts   0.20773   0.47540   0.47719   1.000
    Ts118   Ts   0.23239   0.52476   0.47726   1.000
    Ts119   Ts   0.29229   0.52462   0.52281   1.000
    Ts120   Ts   0.22138   0.49992   0.55298   1.000
    Ts121   Ts   0.27865   0.50010   0.44702   1.000
    Ts122   Ts   0.76763   0.97526   0.52274   1.000
    Ts123   Ts   0.70773   0.97540   0.47719   1.000
    Ts124   Ts   0.73239   0.02475   0.47726   1.000
    Ts125   Ts   0.79229   0.02461   0.52281   1.000
    Ts126   Ts   0.72138   0.99991   0.55298   1.000
    Ts127   Ts   0.77865   0.00009   0.44700   1.000
    Ts128   Ts   0.76763   0.47526   0.52274   1.000
    Ts129   Ts   0.70773   0.47540   0.47719   1.000
    Ts130   Ts   0.73239   0.52476   0.47726   1.000
    Ts131   Ts   0.79229   0.52462   0.52281   1.000
    Ts132   Ts   0.72138   0.49992   0.55298   1.000
    Ts133   Ts   0.77865   0.50010   0.44700   1.000
    Ts134   Ts   0.18729   0.18529   0.25000   1.000
    Ts135   Ts   0.18241   0.09542   0.10435   1.000
    Ts136   Ts   0.18241   0.59542   0.10435   1.000
    Ts137   Ts   0.68241   0.09541   0.10435   1.000
    Ts138   Ts   0.68241   0.59542   0.10435   1.000
    Ts139   Ts   0.31762   0.40459   0.60435   1.000
    Ts140   Ts   0.31762   0.90460   0.60435   1.000
    Ts141   Ts   0.81762   0.40459   0.60435   1.000
    Ts142   Ts   0.81762   0.90460   0.60435   1.000
    Ts143   Ts   0.08715   0.90507   0.39553   1.000
    Ts144   Ts   0.58715   0.40506   0.39553   1.000
    Ts145   Ts   0.58715   0.90507   0.39553   1.000
    Ts146   Ts   0.41287   0.09495   0.89554   1.000
    Ts147   Ts   0.41287   0.59496   0.89554   1.000
    Ts148   Ts   0.91287   0.09495   0.89554   1.000
    Ts149   Ts   0.91287   0.59496   0.89554   1.000
    Ts150   Ts   0.31762   0.40460   0.89562   1.000
    Ts151   Ts   0.31762   0.90461   0.89562   1.000
    Ts152   Ts   0.81762   0.40460   0.89565   1.000
    Ts153   Ts   0.81762   0.90460   0.89565   1.000
    Ts154   Ts   0.18241   0.09542   0.39565   1.000
    Ts155   Ts   0.18241   0.59543   0.39565   1.000
    Ts156   Ts   0.68241   0.09542   0.39565   1.000
    Ts157   Ts   0.68241   0.59543   0.39565   1.000
    Ts158   Ts   0.41287   0.09495   0.60447   1.000
    Ts159   Ts   0.41287   0.59496   0.60447   1.000
    Ts160   Ts   0.91287   0.09495   0.60441   1.000
    Ts161   Ts   0.91287   0.59496   0.60447   1.000
    Ts162   Ts   0.08715   0.40506   0.10446   1.000
    Ts163   Ts   0.08715   0.90507   0.10446   1.000
    Ts164   Ts   0.58715   0.40506   0.10446   1.000
    Ts165   Ts   0.58715   0.90507   0.10446   1.000
    Ts166   Ts   0.05306   0.23096   0.23333   1.000
    Ts167   Ts   0.05306   0.73097   0.23333   1.000
    Ts168   Ts   0.55305   0.23096   0.23333   1.000
    Ts169   Ts   0.55305   0.73097   0.23333   1.000
    Ts170   Ts   0.44697   0.26905   0.75000   1.000
    Ts171   Ts   0.44697   0.76906   0.75000   1.000
    Ts172   Ts   0.94697   0.26905   0.75000   1.000
    Ts173   Ts   0.94697   0.76906   0.75000   1.000
    Ts174   Ts   0.32239   0.26972   0.25000   1.000
    Ts175   Ts   0.32239   0.76973   0.25000   1.000
    Ts176   Ts   0.82239   0.26972   0.25000   1.000
    Ts177   Ts   0.82239   0.76973   0.25000   1.000
    Ts178   Ts   0.17764   0.23029   0.75000   1.000
    Ts179   Ts   0.17764   0.73030   0.75000   1.000
    Ts180   Ts   0.67763   0.23029   0.75000   1.000
    Ts181   Ts   0.67764   0.73030   0.75000   1.000
loop_
    _geom_bond_atom_site_label_1
    _geom_bond_atom_site_label_2
    _geom_bond_distance
    _geom_bond_site_symmetry_2
    _ccdc_geom_bond_type
    C27    Cd2       2.24190      .   S
    C26    Cd1       2.24190      .   S
    C25    Cd0       2.24190      .   S
    C24    Cd23      2.24190      .   S
    C54    Cd8       2.24134      .   S
    C51    Cd9       1.77375  1_455   S
    C52    Cd10      2.24136  1_455   S
    C53    Cd7       2.24134      .   S
    Cd9    C65       2.28710      .   S
    Cd7    C63       2.18467      .   S
    Cd7    C33       2.24143      .   S
    Cd8    C64       2.18469      .   S
    Cd8    C34       2.24142      .   S
    Cd10   C66       2.18467      .   S
    Cd10   C32       2.24144  1_655   S
    Cd23   C55       2.18453      .   S
    Cd23   C43       2.24191      .   S
    C56    Cd0       2.18451      .   S
    C58    Cd2       2.18453      .   S
    C57    Cd1       2.18454      .   S
    Cd0    C44       2.24193      .   S
    Cd1    C45       2.24192      .   S
    Cd2    C46       2.24191      .   S
    C49    Cd11      2.24228  1_655   S
    C31    Cd6       2.24190      .   S
    C28    Cd3       2.24191      .   S
    C29    Cd4       2.24191      .   S
    C30    Cd5       2.24190      .   S
    C50    Cd12      2.24134  1_655   S
    C47    Cd13      2.24133      .   S
    C48    Cd14      2.24133      .   S
    Cd14   C70       2.18467      .   S
    Cd14   C36       2.24145      .   S
    Cd13   C69       2.18466      .   S
    Cd13   C35       2.24145      .   S
    Cd12   C68       2.18467      .   S
    Cd12   C38       2.24145  1_455   S
    Cd11   C67       2.18468      .   S
    Cd11   C37       2.24146  1_455   S
    Cd6    C62       2.18451      .   S
    Cd6    C42       2.24189      .   S
    Cd5    C61       2.18453      .   S
    Cd5    C41       2.24189      .   S
    Cd4    C60       2.18451      .   S
    Cd4    C40       2.24190      .   S
    Cd3    C59       2.18452      .   S
    Cd3    C39       2.24190      .   S
    Cd0    Ts71      0.78641      .   S
    Cd1    Ts72      0.78641      .   S
    Cd2    Ts73      0.78641      .   S
    Cd3    Ts74      0.78641      .   S
    Cd4    Ts75      0.78641      .   S
    Cd5    Ts76      0.78640      .   S
    Cd6    Ts77      0.78641      .   S
    Cd7    Ts78      0.81835      .   S
    Cd8    Ts79      0.81836      .   S
    Cd9    Ts80      0.78668  1_655   S
    Cd10   Ts81      0.81836  1_655   S
    Cd11   Ts82      0.78668  1_455   S
    Cd12   Ts83      0.78667  1_455   S
    Cd13   Ts84      0.78666      .   S
    Cd14   Ts85      0.78667      .   S
    Cd15   Ts86      0.77973  1_566   S
    Cd15   Ts87      0.77866  1_565   S
    Cd15   Ts88      0.77973      .   S
    Cd15   Ts89      0.77862  1_556   S
    Cd15   Ts90      0.84656      .   S
    Cd15   Ts91      0.84664  1_566   S
    Cd16   Ts92      0.77972  1_556   S
    Cd16   Ts93      0.77866      .   S
    Cd16   Ts94      0.77985      .   S
    Cd16   Ts95      0.77867  1_556   S
    Cd16   Ts96      0.84657      .   S
    Cd16   Ts97      0.84664  1_556   S
    Cd17   Ts98      0.77974  1_565   S
    Cd17   Ts99      0.77868  1_564   S
    Cd17   Ts100     0.77959  1_554   S
    Cd17   Ts101     0.77860      .   S
    Cd17   Ts102     0.84660  1_554   S
    Cd17   Ts103     0.84660  1_565   S
    Cd18   Ts104     0.77974      .   S
    Cd18   Ts105     0.77868  1_554   S
    Cd18   Ts106     0.77970  1_554   S
    Cd18   Ts107     0.77866      .   S
    Cd18   Ts108     0.84660  1_554   S
    Cd18   Ts109     0.84660      .   S
    Cd19   Ts110     0.77963  1_545   S
    Cd19   Ts111     0.77861  1_545   S
    Cd19   Ts112     0.77975      .   S
    Cd19   Ts113     0.77867      .   S
    Cd19   Ts114     0.84660  1_545   S
    Cd19   Ts115     0.84660      .   S
    Cd20   Ts116     0.77975      .   S
    Cd20   Ts117     0.77867      .   S
    Cd20   Ts118     0.77974      .   S
    Cd20   Ts119     0.77867      .   S
    Cd20   Ts120     0.84661      .   S
    Cd20   Ts121     0.84660      .   S
    Cd21   Ts122     0.77964  1_545   S
    Cd21   Ts123     0.77861  1_545   S
    Cd21   Ts124     0.77974      .   S
    Cd21   Ts125     0.77867      .   S
    Cd21   Ts126     0.84660  1_545   S
    Cd21   Ts127     0.84680      .   S
    Cd22   Ts128     0.77975      .   S
    Cd22   Ts129     0.77867      .   S
    Cd22   Ts130     0.77974      .   S
    Cd22   Ts131     0.77867      .   S
    Cd22   Ts132     0.84660      .   S
    Cd22   Ts133     0.84679      .   S
    Cd23   Ts134     0.78641      .   S
    C24    Ts135     0.39080      .   S
    C25    Ts136     0.39081      .   S
    C26    Ts137     0.39075      .   S
    C27    Ts138     0.39075      .   S
    C28    Ts139     0.39075      .   S
    C29    Ts140     0.39075      .   S
    C30    Ts141     0.39075      .   S
    C31    Ts142     0.39075      .   S
    C32    Ts143     0.39074      .   S
    C33    Ts144     0.39074      .   S
    C34    Ts145     0.39074      .   S
    C35    Ts146     0.39075      .   S
    C36    Ts147     0.39075      .   S
    C37    Ts148     0.39074      .   S
    C38    Ts149     0.39074      .   S
    C39    Ts150     0.39052      .   S
    C40    Ts151     0.39052      .   S
    C41    Ts152     0.39077      .   S
    C42    Ts153     0.39077      .   S
    C43    Ts154     0.39075      .   S
    C44    Ts155     0.39075      .   S
    C45    Ts156     0.39076      .   S
    C46    Ts157     0.39076      .   S
    C47    Ts158     0.39074      .   S
    C48    Ts159     0.39074      .   S
    C49    Ts160     0.39049      .   S
    C50    Ts161     0.39074      .   S
    C51    Ts162     0.39075      .   S
    C52    Ts163     0.39074      .   S
    C53    Ts164     0.39074      .   S
    C54    Ts165     0.39074      .   S
    C55    Ts166     0.45040      .   S
    C56    Ts167     0.45041      .   S
    C57    Ts168     0.45041      .   S
    C58    Ts169     0.45041      .   S
    C59    Ts170     0.38985      .   S
    C60    Ts171     0.38985      .   S
    C61    Ts172     0.38985      .   S
    C62    Ts173     0.38986      .   S
    C63    Ts174     0.38985      .   S
    C64    Ts175     0.38985      .   S
    C65    Ts176     0.38985      .   S
    C66    Ts177     0.38985      .   S
    C67    Ts178     0.38985      .   S
    C68    Ts179     0.38985      .   S
    C69    Ts180     0.38985      .   S
    C70    Ts181     0.38985      .   S
