# CIF file generated by openbabel 2.4.90, see http://openbabel.sf.net
data_I
_chemical_name_common ''
_cell_length_a 15.74
_cell_length_b 23.167
_cell_length_c 13.534
_cell_angle_alpha 90.001
_cell_angle_beta 90
_cell_angle_gamma 109.791
_space_group_name_H-M_alt 'P 1'
_space_group_name_Hall 'P 1'
loop_
    _symmetry_equiv_pos_as_xyz
    x,y,z
loop_
    _atom_site_label
    _atom_site_type_symbol
    _atom_site_fract_x
    _atom_site_fract_y
    _atom_site_fract_z
    _atom_site_occupancy
    N0      N    0.60879   0.49966   0.75000   1.000
    N1      N    0.89123   0.50036   0.24999   1.000
    N2      N    0.10873   0.49966   0.75000   1.000
    N3      N    0.10873   0.99966   0.75000   1.000
    N4      N    0.89123   0.00036   0.25000   1.000
    N5      N    0.39123   0.50036   0.25000   1.000
    N6      N    0.39123   0.00036   0.25000   1.000
    N7      N    0.60879   0.99966   0.75000   1.000
    N8      N    0.37685   0.57384   0.56844   1.000
    N9      N    0.53421   0.75806   0.20000   1.000
    N10     N    0.03421   0.75806   0.20000   1.000
    N11     N    0.53421   0.25805   0.20000   1.000
    N12     N    0.69714   0.57425   0.43178   1.000
    N13     N    0.37685   0.07383   0.56844   1.000
    N14     N    0.87685   0.57384   0.93157   1.000
    N15     N    0.27666   0.74253   0.25000   1.000
    N16     N    0.30288   0.42578   0.93170   1.000
    N17     N    0.30288   0.92578   0.93170   1.000
    N18     N    0.80288   0.42578   0.93179   1.000
    N19     N    0.62317   0.42618   0.43156   1.000
    N20     N    0.62317   0.92619   0.43156   1.000
    N21     N    0.87685   0.57384   0.56844   1.000
    N22     N    0.12317   0.42618   0.06843   1.000
    N23     N    0.03421   0.25805   0.20000   1.000
    N24     N    0.80288   0.92578   0.93179   1.000
    N25     N    0.46581   0.74197   0.75000   1.000
    N26     N    0.96581   0.24196   0.75000   1.000
    N27     N    0.80288   0.42577   0.56822   1.000
    N28     N    0.37685   0.07383   0.93157   1.000
    N29     N    0.46581   0.24196   0.75000   1.000
    N30     N    0.62317   0.42618   0.06843   1.000
    N31     N    0.62317   0.92618   0.06843   1.000
    N32     N    0.12317   0.92619   0.43156   1.000
    N33     N    0.69714   0.07424   0.43178   1.000
    N34     N    0.19714   0.07424   0.43178   1.000
    N35     N    0.19714   0.57425   0.43178   1.000
    N36     N    0.37685   0.57384   0.93157   1.000
    N37     N    0.87685   0.07383   0.93157   1.000
    N38     N    0.69714   0.07424   0.06822   1.000
    N39     N    0.87685   0.07383   0.56844   1.000
    N40     N    0.69714   0.57425   0.06822   1.000
    N41     N    0.19714   0.07424   0.06820   1.000
    N42     N    0.77666   0.24252   0.25000   1.000
    N43     N    0.77666   0.74253   0.25000   1.000
    N44     N    0.22336   0.75750   0.75000   1.000
    N45     N    0.09616   0.41034   0.40453   1.000
    N46     N    0.22336   0.25749   0.75000   1.000
    N47     N    0.72336   0.25749   0.75000   1.000
    N48     N    0.72336   0.75750   0.75000   1.000
    N49     N    0.96581   0.74197   0.75000   1.000
    N50     N    0.12317   0.92618   0.06843   1.000
    N51     N    0.19714   0.57425   0.06820   1.000
    N52     N    0.30288   0.42577   0.56822   1.000
    N53     N    0.30288   0.92578   0.56822   1.000
    N54     N    0.27667   0.24252   0.25000   1.000
    N55     N    0.80288   0.92578   0.56822   1.000
    Zr56    Zr   0.13879   0.64654   0.25000   1.000
    O57     O    0.16520   0.61436   0.16588   1.000
    O58     O    0.16520   0.61436   0.33411   1.000
    O59     O    0.09003   0.69722   0.23125   1.000
    O60     O    0.19097   0.68380   0.25000   1.000
    Zr61    Zr   0.63879   0.64654   0.25000   1.000
    O62     O    0.66520   0.61436   0.16588   1.000
    O63     O    0.66520   0.61436   0.33411   1.000
    O64     O    0.69097   0.68380   0.25000   1.000
    O65     O    0.59003   0.69722   0.23125   1.000
    Zr66    Zr   0.49237   0.35409   0.24999   1.000
    O67     O    0.55102   0.38618   0.16597   1.000
    O68     O    0.39309   0.30341   0.25000   1.000
    O69     O    0.50726   0.31682   0.23125   1.000
    O70     O    0.55102   0.38618   0.33402   1.000
    Zr71    Zr   0.86123   0.85349   0.75000   1.000
    O72     O    0.90999   0.80281   0.75000   1.000
    O73     O    0.83482   0.88567   0.83412   1.000
    O74     O    0.80905   0.81623   0.75000   1.000
    O75     O    0.83482   0.88567   0.66588   1.000
    Zr76    Zr   0.86123   0.35348   0.75000   1.000
    O77     O    0.90999   0.30280   0.75000   1.000
    O78     O    0.83482   0.38566   0.83412   1.000
    O79     O    0.80905   0.31622   0.75000   1.000
    O80     O    0.83482   0.38566   0.66588   1.000
    Zr81    Zr   0.50765   0.14592   0.75000   1.000
    O82     O    0.49277   0.18319   0.75000   1.000
    O83     O    0.60693   0.19660   0.75000   1.000
    O84     O    0.44900   0.11384   0.66598   1.000
    O85     O    0.44901   0.11384   0.83403   1.000
    Zr86    Zr   0.36124   0.85349   0.75000   1.000
    O87     O    0.33482   0.88567   0.83408   1.000
    O88     O    0.30906   0.81623   0.75000   1.000
    O89     O    0.40999   0.80281   0.75000   1.000
    O90     O    0.33482   0.88567   0.66588   1.000
    Zr91    Zr   0.13879   0.14653   0.25000   1.000
    O92     O    0.09004   0.19721   0.23125   1.000
    O93     O    0.16520   0.11435   0.16588   1.000
    O94     O    0.16520   0.11435   0.33411   1.000
    O95     O    0.19097   0.18379   0.25000   1.000
    Zr96    Zr   0.50765   0.64593   0.75000   1.000
    O97     O    0.60693   0.69661   0.75000   1.000
    O98     O    0.44901   0.61384   0.66598   1.000
    O99     O    0.44901   0.61385   0.83403   1.000
    O100    O    0.49277   0.68320   0.75000   1.000
    Zr101   Zr   0.99237   0.85410   0.24999   1.000
    O102    O    0.89309   0.80342   0.25000   1.000
    O103    O    0.05102   0.88618   0.16597   1.000
    O104    O    0.00726   0.81683   0.23125   1.000
    O105    O    0.05102   0.88618   0.33402   1.000
    Zr106   Zr   0.96678   0.34062   0.19083   1.000
    O107    O    0.03822   0.37944   0.13638   1.000
    O108    O    0.88029   0.29667   0.22041   1.000
    O109    O    0.99446   0.31008   0.19541   1.000
    Zr110   Zr   0.00765   0.64593   0.75000   1.000
    O111    O    0.94901   0.61385   0.66598   1.000
    O112    O    0.10693   0.69661   0.75000   1.000
    O113    O    0.99277   0.68320   0.75000   1.000
    O114    O    0.94901   0.61385   0.83403   1.000
    Zr115   Zr   0.63879   0.14653   0.25000   1.000
    O116    O    0.66520   0.11435   0.16588   1.000
    O117    O    0.66520   0.11435   0.33411   1.000
    O118    O    0.59003   0.19721   0.23125   1.000
    O119    O    0.69097   0.18379   0.25000   1.000
    Zr120   Zr   0.00765   0.14592   0.74998   1.000
    O121    O    0.94901   0.11384   0.66595   1.000
    O122    O    0.10693   0.19661   0.74999   1.000
    O123    O    0.99277   0.18319   0.74999   1.000
    O124    O    0.94901   0.11384   0.83402   1.000
    Zr125   Zr   0.36124   0.35349   0.75000   1.000
    O126    O    0.40999   0.30280   0.75000   1.000
    O127    O    0.30906   0.31622   0.75000   1.000
    O128    O    0.33482   0.38566   0.83408   1.000
    O129    O    0.33482   0.38566   0.66588   1.000
    Zr130   Zr   0.25001   0.50001   0.50000   1.000
    O131    O    0.19569   0.46836   0.46758   1.000
    O132    O    0.23019   0.52785   0.47442   1.000
    O133    O    0.29605   0.50013   0.41763   1.000
    O134    O    0.26984   0.47217   0.52558   1.000
    O135    O    0.20395   0.49989   0.58237   1.000
    O136    O    0.29758   0.52770   0.52566   1.000
    Zr137   Zr   0.49237   0.85410   0.24999   1.000
    O138    O    0.55102   0.88618   0.33402   1.000
    O139    O    0.55102   0.88618   0.16597   1.000
    O140    O    0.39309   0.80342   0.25000   1.000
    O141    O    0.50726   0.81683   0.23125   1.000
    Zr142   Zr   0.75001   1.00000   0.00000   1.000
    O143    O    0.76984   0.97217   0.97442   1.000
    O144    O    0.70245   0.97232   0.02566   1.000
    O145    O    0.73019   0.02784   0.02558   1.000
    O146    O    0.79758   0.02769   0.97434   1.000
    O147    O    0.70397   0.99988   0.91763   1.000
    O148    O    0.79606   0.00012   0.08237   1.000
    Zr149   Zr   0.25001   1.00000   0.99999   1.000
    O150    O    0.23018   0.02784   0.02557   1.000
    O151    O    0.29605   0.00012   0.08236   1.000
    O152    O    0.29758   0.02769   0.97433   1.000
    O153    O    0.26984   0.97217   0.97438   1.000
    O154    O    0.20395   0.99988   0.91762   1.000
    O155    O    0.20245   0.97232   0.02565   1.000
    Zr156   Zr   0.25001   0.00000   0.50000   1.000
    O157    O    0.20245   0.97232   0.47433   1.000
    O158    O    0.29758   0.02769   0.52566   1.000
    O159    O    0.29605   0.00012   0.41763   1.000
    O160    O    0.20395   0.99988   0.58237   1.000
    O161    O    0.26984   0.97217   0.52558   1.000
    O162    O    0.23019   0.02784   0.47442   1.000
    Zr163   Zr   0.75001   0.50001   0.50000   1.000
    O164    O    0.70245   0.47232   0.47433   1.000
    O165    O    0.73019   0.52785   0.47442   1.000
    O166    O    0.79758   0.52770   0.52566   1.000
    O167    O    0.76984   0.47217   0.52558   1.000
    O168    O    0.79606   0.50013   0.41762   1.000
    O169    O    0.70397   0.49989   0.58237   1.000
    Zr170   Zr   0.75001   0.50001   0.00000   1.000
    O171    O    0.79606   0.50013   0.08237   1.000
    O172    O    0.79758   0.52770   0.97434   1.000
    O173    O    0.73019   0.52785   0.02558   1.000
    O174    O    0.76984   0.47217   0.97442   1.000
    O175    O    0.70397   0.49989   0.91763   1.000
    O176    O    0.70245   0.47232   0.02566   1.000
    Zr177   Zr   0.25001   0.50001   0.99999   1.000
    O178    O    0.29758   0.52770   0.97433   1.000
    O179    O    0.23018   0.52785   0.02557   1.000
    O180    O    0.29605   0.50013   0.08236   1.000
    O181    O    0.20395   0.49989   0.91762   1.000
    O182    O    0.26984   0.47217   0.97438   1.000
    O183    O    0.20245   0.47232   0.02565   1.000
    Zr184   Zr   0.75001   0.00000   0.50000   1.000
    O185    O    0.70245   0.97232   0.47433   1.000
    O186    O    0.79758   0.02769   0.52566   1.000
    O187    O    0.73019   0.02784   0.47442   1.000
    O188    O    0.70397   0.99988   0.58237   1.000
    O189    O    0.79606   0.00012   0.41762   1.000
    O190    O    0.76984   0.97217   0.52558   1.000
loop_
    _geom_bond_atom_site_label_1
    _geom_bond_atom_site_label_2
    _geom_bond_distance
    _geom_bond_site_symmetry_2
    _ccdc_geom_bond_type
    Zr56   O57       1.49482      .   S
    N51    O57       1.78338      .   S
    Zr56   O58       1.49475      .   S
    N35    O58       1.78326      .   S
    Zr56   O59       1.62549      .   S
    N10    O59       1.94329      .   S
    Zr56   O60       0.96942      .   S
    N15    O60       1.55812      .   S
    Zr61   O62       1.49474      .   S
    N40    O62       1.78325      .   S
    Zr61   O63       1.49475      .   S
    N12    O63       1.78327      .   S
    Zr61   O64       0.96942      .   S
    N43    O64       1.55812      .   S
    Zr61   O65       1.62550      .   S
    N9     O65       1.94330      .   S
    Zr66   O67       1.49440      .   S
    N30    O67       1.78286      .   S
    Zr66   O68       1.60565      .   S
    N54    O68       1.89667      .   S
    Zr66   O69       1.00094      .   S
    N11    O69       1.61352      .   S
    Zr66   O70       1.49440      .   S
    N19    O70       1.78285      .   S
    Zr71   O72       1.60556      .   S
    N49    O72       1.89670      .   S
    Zr71   O73       1.49477      .   S
    N24    O73       1.78330      .   S
    Zr71   O74       0.96942      .   S
    N48    O74       1.55812      .   S
    Zr71   O75       1.49474      .   S
    N55    O75       1.78325      .   S
    Zr76   O77       1.60555      .   S
    N26    O77       1.89669      .   S
    Zr76   O78       1.49477      .   S
    N18    O78       1.78330      .   S
    Zr76   O79       0.96943      .   S
    N47    O79       1.55812      .   S
    Zr76   O80       1.49474      .   S
    N27    O80       1.78325      .   S
    Zr81   O82       0.96825      .   S
    N29    O82       1.55713      .   S
    Zr81   O83       1.60565      .   S
    N47    O83       1.89667      .   S
    Zr81   O84       1.49438      .   S
    N13    O84       1.78284      .   S
    Zr81   O85       1.49442      .   S
    N28    O85       1.78288      .   S
    Zr86   O87       1.49443      .   S
    N17    O87       1.78274      .   S
    Zr86   O88       0.96942      .   S
    N44    O88       1.55812      .   S
    Zr86   O89       1.60556      .   S
    N25    O89       1.89670      .   S
    Zr86   O90       1.49475      .   S
    N53    O90       1.78326      .   S
    Zr91   O92       1.62549      .   S
    N23    O92       1.94329      .   S
    Zr91   O93       1.49481      .   S
    N41    O93       1.78337      .   S
    Zr91   O94       1.49475      .   S
    N34    O94       1.78326      .   S
    Zr91   O95       0.96942      .   S
    N54    O95       1.55812      .   S
    Zr96   O97       1.60565      .   S
    N48    O97       1.89667      .   S
    Zr96   O98       1.49438      .   S
    N8     O98       1.78284      .   S
    Zr96   O99       1.49442      .   S
    N36    O99       1.78288      .   S
    Zr96   O100      0.96825      .   S
    N25    O100      1.55714      .   S
    Zr101  O102      1.60565      .   S
    N43    O102      1.89668      .   S
    Zr101  O103      1.49441  1_655   S
    N50    O103      1.78286      .   S
    Zr101  O104      1.00094  1_655   S
    N10    O104      1.61353      .   S
    Zr101  O105      1.49440  1_655   S
    N32    O105      1.78285      .   S
    Zr106  O107      1.38976  1_655   S
    N22    O107      1.68100      .   S
    Zr106  O108      1.45309      .   S
    N42    O108      1.73465      .   S
    Zr106  O109      0.95022      .   S
    N23    O109      1.53592  1_455   S
    Zr110  O111      1.49438  1_455   S
    N21    O111      1.78284      .   S
    Zr110  O112      1.60565      .   S
    N44    O112      1.89668      .   S
    Zr110  O113      0.96825  1_455   S
    N49    O113      1.55714      .   S
    Zr110  O114      1.49442  1_455   S
    N14    O114      1.78288      .   S
    Zr115  O116      1.49474      .   S
    N38    O116      1.78326      .   S
    Zr115  O117      1.49475      .   S
    N33    O117      1.78327      .   S
    Zr115  O118      1.62550      .   S
    N11    O118      1.94330      .   S
    Zr115  O119      0.96941      .   S
    N42    O119      1.55811      .   S
    Zr120  O121      1.49439  1_455   S
    N39    O121      1.78261      .   S
    Zr120  O122      1.60566      .   S
    N46    O122      1.89668      .   S
    Zr120  O123      0.96826  1_455   S
    N26    O123      1.55715      .   S
    Zr120  O124      1.49454  1_455   S
    N37    O124      1.78299      .   S
    Zr125  O126      1.60556      .   S
    N29    O126      1.89670      .   S
    Zr125  O127      0.96942      .   S
    N46    O127      1.55812      .   S
    Zr125  O128      1.49442      .   S
    N16    O128      1.78274      .   S
    Zr125  O129      1.49474      .   S
    N52    O129      1.78325      .   S
    Zr130  O131      1.01810      .   S
    N45    O131      1.88765      .   S
    Zr130  O132      0.87721      .   S
    N35    O132      1.46201      .   S
    Zr130  O133      1.32914      .   S
    N5     O133      2.71772      .   S
    Zr130  O134      0.87722      .   S
    N52    O134      1.46203      .   S
    Zr130  O135      1.32926      .   S
    N2     O135      2.71809      .   S
    Zr130  O136      0.87600      .   S
    N8     O136      1.46001      .   S
    Zr137  O138      1.49439      .   S
    N20    O138      1.78285      .   S
    Zr137  O139      1.49441      .   S
    N31    O139      1.78286      .   S
    Zr137  O140      1.60565      .   S
    N15    O140      1.89667      .   S
    Zr137  O141      1.00094      .   S
    N9     O141      1.61353      .   S
    Zr142  O143      0.87704  1_554   S
    N24    O143      1.46173      .   S
    Zr142  O144      0.87592      .   S
    N31    O144      1.45987      .   S
    Zr142  O145      0.87720  1_565   S
    N38    O145      1.46201      .   S
    Zr142  O146      0.87601  1_564   S
    N37    O146      1.46002      .   S
    Zr142  O147      1.32914  1_554   S
    N7     O147      2.71775      .   S
    Zr142  O148      1.32911  1_565   S
    N4     O148      2.71766      .   S
    Zr149  O150      0.87719  1_566   S
    N41    O150      1.46198      .   S
    Zr149  O151      1.32915  1_566   S
    N6     O151      2.71773      .   S
    Zr149  O152      0.87599  1_565   S
    N28    O152      1.45999      .   S
    Zr149  O153      0.87719      .   S
    N17    O153      1.46199      .   S
    Zr149  O154      1.32923      .   S
    N3     O154      2.71807      .   S
    Zr149  O155      0.87594  1_556   S
    N50    O155      1.45990      .   S
    Zr156  O157      0.87593  1_545   S
    N32    O157      1.45989      .   S
    Zr156  O158      0.87600      .   S
    N13    O158      1.46001      .   S
    Zr156  O159      1.32913      .   S
    N6     O159      2.71772      .   S
    Zr156  O160      1.32927  1_545   S
    N3     O160      2.71813      .   S
    Zr156  O161      0.87709  1_545   S
    N53    O161      1.46181      .   S
    Zr156  O162      0.87722      .   S
    N34    O162      1.46203      .   S
    Zr163  O164      0.87600      .   S
    N19    O164      1.46000      .   S
    Zr163  O165      0.87721      .   S
    N12    O165      1.46202      .   S
    Zr163  O166      0.87601      .   S
    N21    O166      1.46001      .   S
    Zr163  O167      0.87722      .   S
    N27    O167      1.46203      .   S
    Zr163  O168      1.32922      .   S
    N1     O168      2.71770      .   S
    Zr163  O169      1.32912      .   S
    N0     O169      2.71770      .   S
    Zr170  O171      1.32912      .   S
    N1     O171      2.71767      .   S
    Zr170  O172      0.87602  1_554   S
    N14    O172      1.46003      .   S
    Zr170  O173      0.87720      .   S
    N40    O173      1.46201      .   S
    Zr170  O174      0.87716  1_554   S
    N18    O174      1.46194      .   S
    Zr170  O175      1.32913  1_554   S
    N0     O175      2.71771      .   S
    Zr170  O176      0.87599      .   S
    N30    O176      1.45999      .   S
    Zr177  O178      0.87599      .   S
    N36    O178      1.45999      .   S
    Zr177  O179      0.87718  1_556   S
    N51    O179      1.46197      .   S
    Zr177  O180      1.32917  1_556   S
    N5     O180      2.71776      .   S
    Zr177  O181      1.32923      .   S
    N2     O181      2.71806      .   S
    Zr177  O182      0.87733      .   S
    N16    O182      1.46221      .   S
    Zr177  O183      0.87601  1_556   S
    N22    O183      1.46001      .   S
    Zr184  O185      0.87593  1_545   S
    N20    O185      1.45989      .   S
    Zr184  O186      0.87600      .   S
    N39    O186      1.46001      .   S
    Zr184  O187      0.87721      .   S
    N33    O187      1.46202      .   S
    Zr184  O188      1.32913  1_545   S
    N7     O188      2.71770      .   S
    Zr184  O189      1.32921      .   S
    N4     O189      2.71767      .   S
    Zr184  O190      0.87709  1_545   S
    N55    O190      1.46182      .   S
