# CIF file generated by openbabel 2.4.90, see http://openbabel.sf.net
data_I
_chemical_name_common ''
_cell_length_a 15.74
_cell_length_b 23.167
_cell_length_c 13.534
_cell_angle_alpha 90.001
_cell_angle_beta 90
_cell_angle_gamma 109.791
_space_group_name_H-M_alt 'P 1'
_space_group_name_Hall 'P 1'
loop_
    _symmetry_equiv_pos_as_xyz
    x,y,z
loop_
    _atom_site_label
    _atom_site_type_symbol
    _atom_site_fract_x
    _atom_site_fract_y
    _atom_site_fract_z
    _atom_site_occupancy
    C0      C    0.14260   0.15668   0.25000   1.000
    C1      C    0.14260   0.65669   0.25000   1.000
    C2      C    0.64260   0.15668   0.25000   1.000
    C3      C    0.64260   0.65669   0.25000   1.000
    C4      C    0.35742   0.34333   0.75000   1.000
    C5      C    0.35742   0.84334   0.75000   1.000
    C6      C    0.85742   0.34333   0.75000   1.000
    C7      C    0.85742   0.84334   0.75000   1.000
    C8      C    0.48594   0.34403   0.24999   1.000
    C9      C    0.48594   0.84404   0.24999   1.000
    C10     C    0.98594   0.34403   0.20000   1.000
    C11     C    0.98594   0.84404   0.24999   1.000
    C12     C    0.01409   0.15598   0.75000   1.000
    C13     C    0.01409   0.65599   0.75000   1.000
    C14     C    0.51408   0.15598   0.75000   1.000
    C15     C    0.51408   0.65599   0.75000   1.000
    C16     C    0.25001   1.00000   0.99999   1.000
    C17     C    0.25001   0.50001   0.99999   1.000
    C18     C    0.75001   1.00000   0.00000   1.000
    C19     C    0.75001   0.50001   0.00000   1.000
    C20     C    0.25001   0.00000   0.50000   1.000
    C21     C    0.25001   0.50001   0.50000   1.000
    C22     C    0.75001   0.00000   0.50000   1.000
    C23     C    0.75001   0.50001   0.50000   1.000
    C24     C    0.09597   0.05532   0.90478   1.000
    C25     C    0.09597   0.55533   0.90470   1.000
    C26     C    0.59597   0.05532   0.90470   1.000
    C27     C    0.59597   0.55533   0.90478   1.000
    C28     C    0.19658   0.09637   0.83921   1.000
    C29     C    0.19658   0.59638   0.83921   1.000
    C30     C    0.69658   0.09638   0.83921   1.000
    C31     C    0.69658   0.59638   0.83921   1.000
    C32     C    0.04077   0.44383   0.59523   1.000
    C33     C    0.04077   0.94384   0.59523   1.000
    C34     C    0.54077   0.44383   0.59523   1.000
    C35     C    0.54077   0.94384   0.59523   1.000
    C36     C    0.10083   0.40305   0.66085   1.000
    C37     C    0.10083   0.90306   0.66085   1.000
    C38     C    0.60083   0.40305   0.66085   1.000
    C39     C    0.60083   0.90306   0.66085   1.000
    C40     C    0.09597   0.05532   0.59523   1.000
    C41     C    0.09597   0.55532   0.59523   1.000
    C42     C    0.59597   0.05532   0.59523   1.000
    C43     C    0.59597   0.55533   0.59523   1.000
    C44     C    0.19658   0.09638   0.66080   1.000
    C45     C    0.19658   0.59638   0.66080   1.000
    C46     C    0.69658   0.09638   0.66080   1.000
    C47     C    0.69658   0.59638   0.66080   1.000
    C48     C    0.04077   0.44383   0.90477   1.000
    C49     C    0.04077   0.94384   0.90477   1.000
    C50     C    0.54077   0.44383   0.90477   1.000
    C51     C    0.54077   0.94384   0.90477   1.000
    C52     C    0.10083   0.40305   0.83915   1.000
    C53     C    0.10083   0.90306   0.83910   1.000
    C54     C    0.60083   0.40305   0.83910   1.000
    C55     C    0.60083   0.90306   0.83915   1.000
    C56     C    0.46075   0.99943   0.81593   1.000
    C57     C    0.46074   0.49944   0.81593   1.000
    C58     C    0.96074   0.99943   0.81593   1.000
    C59     C    0.96074   0.49944   0.81593   1.000
    C60     C    0.46075   0.99943   0.68407   1.000
    C61     C    0.46074   0.49944   0.68408   1.000
    C62     C    0.96074   0.99943   0.68408   1.000
    C63     C    0.96074   0.49944   0.68407   1.000
    C64     C    0.23737   0.45896   0.75000   1.000
    C65     C    0.23737   0.95896   0.75000   1.000
    C66     C    0.73737   0.45896   0.75000   1.000
    C67     C    0.73737   0.95896   0.75000   1.000
    C68     C    0.27790   0.04085   0.75000   1.000
    C69     C    0.27790   0.54086   0.75000   1.000
    C70     C    0.77790   0.04085   0.75000   1.000
    C71     C    0.77791   0.54086   0.75000   1.000
    C72     C    0.40405   0.44470   0.40477   1.000
    C73     C    0.40405   0.94470   0.40477   1.000
    C74     C    0.90406   0.44469   0.40477   1.000
    C75     C    0.90406   0.94470   0.40477   1.000
    C76     C    0.30344   0.40364   0.33920   1.000
    C77     C    0.30344   0.90365   0.33920   1.000
    C78     C    0.80345   0.40364   0.33920   1.000
    C79     C    0.80344   0.90365   0.33920   1.000
    C80     C    0.45925   0.05618   0.09523   1.000
    C81     C    0.45925   0.55619   0.09523   1.000
    C82     C    0.95926   0.05618   0.09523   1.000
    C83     C    0.95926   0.55619   0.09523   1.000
    C84     C    0.39919   0.09696   0.16080   1.000
    C85     C    0.39919   0.59697   0.16085   1.000
    C86     C    0.89919   0.09696   0.16085   1.000
    C87     C    0.89919   0.59697   0.16080   1.000
    C88     C    0.40405   0.44469   0.09520   1.000
    C89     C    0.40405   0.94470   0.09522   1.000
    C90     C    0.90406   0.44469   0.09522   1.000
    C91     C    0.90406   0.94470   0.09522   1.000
    C92     C    0.30344   0.40364   0.16079   1.000
    C93     C    0.30344   0.90364   0.16079   1.000
    C94     C    0.80345   0.40364   0.16079   1.000
    C95     C    0.80344   0.90364   0.16079   1.000
    C96     C    0.45925   0.05618   0.40477   1.000
    C97     C    0.45925   0.55619   0.40477   1.000
    C98     C    0.95926   0.05618   0.40477   1.000
    C99     C    0.95926   0.55619   0.40477   1.000
    C100    C    0.39919   0.09696   0.33915   1.000
    C101    C    0.39919   0.59697   0.33915   1.000
    C102    C    0.89919   0.09696   0.33915   1.000
    C103    C    0.89920   0.59697   0.33915   1.000
    C104    C    0.03928   0.00058   0.31590   1.000
    C105    C    0.03929   0.50058   0.31592   1.000
    C106    C    0.53928   0.00058   0.31592   1.000
    C107    C    0.53928   0.50058   0.31593   1.000
    C108    C    0.03928   0.00058   0.18407   1.000
    C109    C    0.03929   0.50058   0.18407   1.000
    C110    C    0.53928   0.00058   0.18407   1.000
    C111    C    0.53928   0.50058   0.18407   1.000
    C112    C    0.26265   0.04106   0.25000   1.000
    C113    C    0.26265   0.54106   0.25000   1.000
    C114    C    0.76265   0.04106   0.25000   1.000
    C115    C    0.76265   0.54106   0.25000   1.000
    C116    C    0.22212   0.45916   0.25000   1.000
    C117    C    0.22212   0.95917   0.25000   1.000
    C118    C    0.72212   0.45916   0.25000   1.000
    C119    C    0.72212   0.95916   0.25000   1.000
    C120    C    0.17504   0.10601   0.12242   1.000
    C121    C    0.17504   0.60601   0.12242   1.000
    C122    C    0.67504   0.10600   0.12242   1.000
    C123    C    0.67504   0.60601   0.12242   1.000
    C124    C    0.32498   0.39401   0.62242   1.000
    C125    C    0.32498   0.89401   0.62242   1.000
    C126    C    0.82498   0.39400   0.62242   1.000
    C127    C    0.82498   0.89401   0.62242   1.000
    C128    C    0.06915   0.39451   0.37751   1.000
    C129    C    0.06915   0.89451   0.37751   1.000
    C130    C    0.56915   0.39451   0.37751   1.000
    C131    C    0.56915   0.89451   0.37751   1.000
    C132    C    0.43088   0.10551   0.87752   1.000
    C133    C    0.43088   0.60552   0.87752   1.000
    C134    C    0.93088   0.10551   0.87752   1.000
    C135    C    0.93088   0.60552   0.87752   1.000
    C136    C    0.32499   0.39401   0.87758   1.000
    C137    C    0.32499   0.89402   0.87758   1.000
    C138    C    0.82498   0.39401   0.87758   1.000
    C139    C    0.82498   0.89401   0.87758   1.000
    C140    C    0.17504   0.10601   0.37758   1.000
    C141    C    0.17504   0.60601   0.37758   1.000
    C142    C    0.67504   0.10601   0.37758   1.000
    C143    C    0.67504   0.60601   0.37758   1.000
    C144    C    0.43088   0.10551   0.62249   1.000
    C145    C    0.43088   0.60551   0.62249   1.000
    C146    C    0.93088   0.10551   0.62240   1.000
    C147    C    0.93088   0.60552   0.62249   1.000
    C148    C    0.06914   0.39450   0.12248   1.000
    C149    C    0.06915   0.89451   0.12248   1.000
    C150    C    0.56914   0.39450   0.12248   1.000
    C151    C    0.56914   0.89451   0.12248   1.000
    C152    C    0.06248   0.21742   0.25000   1.000
    C153    C    0.06248   0.71742   0.25000   1.000
    C154    C    0.56248   0.21742   0.25000   1.000
    C155    C    0.56248   0.71742   0.25000   1.000
    C156    C    0.43755   0.28260   0.75000   1.000
    C157    C    0.43755   0.78260   0.75000   1.000
    C158    C    0.93755   0.28260   0.75000   1.000
    C159    C    0.93755   0.78260   0.75000   1.000
    C160    C    0.34525   0.28332   0.25000   1.000
    C161    C    0.34525   0.78333   0.25000   1.000
    C162    C    0.84525   0.28332   0.25000   1.000
    C163    C    0.84525   0.78333   0.25000   1.000
    C164    C    0.15477   0.21669   0.75000   1.000
    C165    C    0.15478   0.71670   0.75000   1.000
    C166    C    0.65477   0.21669   0.75000   1.000
    C167    C    0.65477   0.71670   0.75000   1.000
    C168    C    0.13589   0.05517   0.83840   1.000
    C169    C    0.13589   0.55518   0.83840   1.000
    C170    C    0.63589   0.05517   0.83840   1.000
    C171    C    0.63589   0.55518   0.83840   1.000
    C172    C    0.08087   0.44412   0.66162   1.000
    C173    C    0.08087   0.94413   0.66162   1.000
    C174    C    0.58088   0.44412   0.66162   1.000
    C175    C    0.58088   0.94413   0.66162   1.000
    C176    C    0.13588   0.05517   0.66160   1.000
    C177    C    0.13589   0.55518   0.66160   1.000
    C178    C    0.63589   0.05517   0.66160   1.000
    C179    C    0.63589   0.55518   0.66160   1.000
    C180    C    0.08087   0.44412   0.83838   1.000
    C181    C    0.08087   0.94414   0.83838   1.000
    C182    C    0.58088   0.44413   0.83838   1.000
    C183    C    0.58088   0.94413   0.83838   1.000
    C184    C    0.50135   0.99949   0.75000   1.000
    C185    C    0.50136   0.49950   0.75000   1.000
    C186    C    0.00000   0.99949   0.75000   1.000
    C187    C    0.00000   0.49950   0.75000   1.000
    C188    C    0.21717   0.99983   0.75000   1.000
    C189    C    0.21717   0.49983   0.75000   1.000
    C190    C    0.71717   0.99983   0.75000   1.000
    C191    C    0.71717   0.49983   0.75000   1.000
    C192    C    0.36414   0.44484   0.33840   1.000
    C193    C    0.36414   0.94485   0.33840   1.000
    C194    C    0.86414   0.44484   0.33840   1.000
    C195    C    0.86414   0.94485   0.33840   1.000
    C196    C    0.41915   0.05589   0.16162   1.000
    C197    C    0.41915   0.55590   0.16162   1.000
    C198    C    0.91915   0.05589   0.16162   1.000
    C199    C    0.91915   0.55589   0.16162   1.000
    C200    C    0.36413   0.44484   0.16160   1.000
    C201    C    0.36414   0.94485   0.16160   1.000
    C202    C    0.86414   0.44484   0.16160   1.000
    C203    C    0.86414   0.94485   0.16160   1.000
    C204    C    0.41915   0.05589   0.33838   1.000
    C205    C    0.41915   0.55590   0.33838   1.000
    C206    C    0.91915   0.05589   0.33838   1.000
    C207    C    0.91915   0.55589   0.33838   1.000
    C208    C    0.99867   0.00052   0.25000   1.000
    C209    C    0.99867   0.50052   0.25000   1.000
    C210    C    0.49867   0.00051   0.25000   1.000
    C211    C    0.49867   0.50052   0.25000   1.000
    C212    C    0.28285   0.00018   0.25000   1.000
    C213    C    0.28285   0.50018   0.25000   1.000
    C214    C    0.78285   0.00018   0.25000   1.000
    C215    C    0.78285   0.50018   0.25000   1.000
    C216    C    0.19714   0.07424   0.06820   1.000
    C217    C    0.19714   0.57425   0.06820   1.000
    C218    C    0.69714   0.07424   0.06822   1.000
    C219    C    0.69714   0.57425   0.06822   1.000
    C220    C    0.30288   0.42577   0.56822   1.000
    C221    C    0.30288   0.92578   0.56822   1.000
    C222    C    0.80288   0.42577   0.56822   1.000
    C223    C    0.80288   0.92578   0.56822   1.000
    C224    C    0.12317   0.42618   0.43156   1.000
    C225    C    0.12317   0.92619   0.43156   1.000
    C226    C    0.62317   0.42618   0.43156   1.000
    C227    C    0.62317   0.92619   0.43156   1.000
    C228    C    0.37685   0.07383   0.93157   1.000
    C229    C    0.37685   0.57384   0.93157   1.000
    C230    C    0.87685   0.07383   0.93157   1.000
    C231    C    0.87685   0.57384   0.93157   1.000
    C232    C    0.30288   0.42578   0.93170   1.000
    C233    C    0.30288   0.92578   0.93170   1.000
    C234    C    0.80288   0.42578   0.93179   1.000
    C235    C    0.80288   0.92578   0.93179   1.000
    C236    C    0.19714   0.07424   0.43178   1.000
    C237    C    0.19714   0.57425   0.43178   1.000
    C238    C    0.69714   0.07424   0.43178   1.000
    C239    C    0.69714   0.57425   0.43178   1.000
    C240    C    0.37685   0.07383   0.56844   1.000
    C241    C    0.37685   0.57384   0.56844   1.000
    C242    C    0.87685   0.07383   0.56844   1.000
    C243    C    0.87685   0.57384   0.56844   1.000
    C244    C    0.12317   0.42618   0.06843   1.000
    C245    C    0.12317   0.92618   0.06843   1.000
    C246    C    0.62317   0.42618   0.06843   1.000
    C247    C    0.62317   0.92618   0.06843   1.000
    C248    C    0.03421   0.25805   0.20000   1.000
    C249    C    0.03421   0.75806   0.20000   1.000
    C250    C    0.53421   0.25805   0.20000   1.000
    C251    C    0.53421   0.75806   0.20000   1.000
    C252    C    0.46581   0.24196   0.75000   1.000
    C253    C    0.46581   0.74197   0.75000   1.000
    C254    C    0.96581   0.24196   0.75000   1.000
    C255    C    0.96581   0.74197   0.75000   1.000
    C256    C    0.27667   0.24252   0.25000   1.000
    C257    C    0.27666   0.74253   0.25000   1.000
    C258    C    0.77666   0.24252   0.25000   1.000
    C259    C    0.77666   0.74253   0.25000   1.000
    C260    C    0.22336   0.25749   0.75000   1.000
    C261    C    0.22336   0.75750   0.75000   1.000
    C262    C    0.72336   0.25749   0.75000   1.000
    C263    C    0.72336   0.75750   0.75000   1.000
    C264    C    0.16411   0.99974   0.84105   1.000
    C265    C    0.16411   0.49975   0.84105   1.000
    C266    C    0.66411   0.99974   0.84105   1.000
    C267    C    0.66411   0.49975   0.84105   1.000
    C268    C    0.16411   0.99974   0.65895   1.000
    C269    C    0.16410   0.49975   0.65895   1.000
    C270    C    0.66411   0.99974   0.65895   1.000
    C271    C    0.66411   0.49975   0.65895   1.000
    C272    C    0.08183   0.05564   0.75000   1.000
    C273    C    0.08183   0.55565   0.75000   1.000
    C274    C    0.58183   0.05564   0.75000   1.000
    C275    C    0.58183   0.55565   0.75000   1.000
    C276    C    0.02626   0.44351   0.75000   1.000
    C277    C    0.02626   0.94351   0.75000   1.000
    C278    C    0.52626   0.44351   0.75000   1.000
    C279    C    0.52626   0.94351   0.75000   1.000
    C280    C    0.33592   0.00026   0.34105   1.000
    C281    C    0.33592   0.50027   0.34105   1.000
    C282    C    0.83592   0.00026   0.34100   1.000
    C283    C    0.83592   0.50027   0.34100   1.000
    C284    C    0.33592   0.00026   0.15895   1.000
    C285    C    0.33592   0.50027   0.15895   1.000
    C286    C    0.83592   0.00026   0.15895   1.000
    C287    C    0.83592   0.50027   0.15895   1.000
    C288    C    0.41819   0.44437   0.25000   1.000
    C289    C    0.41819   0.94438   0.25000   1.000
    C290    C    0.91819   0.44437   0.25000   1.000
    C291    C    0.91819   0.94438   0.25000   1.000
    C292    C    0.47376   0.05651   0.25000   1.000
    C293    C    0.47376   0.55651   0.25000   1.000
    C294    C    0.97376   0.05651   0.25000   1.000
    C295    C    0.97376   0.55652   0.25000   1.000
    O296    O    0.72358   0.53713   0.03411   1.000
    O297    O    0.68659   0.46309   0.03421   1.000
    O298    O    0.79296   0.50014   0.07947   1.000
    O299    O    0.70706   0.49988   0.92052   1.000
    O300    O    0.81343   0.53693   0.96578   1.000
    O301    O    0.77645   0.46289   0.96589   1.000
    O302    O    0.72358   0.03712   0.03411   1.000
    O303    O    0.68659   0.96309   0.03421   1.000
    O304    O    0.79296   0.00013   0.07947   1.000
    O305    O    0.70706   0.99987   0.92052   1.000
    O306    O    0.81343   0.03692   0.96578   1.000
    O307    O    0.77645   0.96289   0.96589   1.000
    O308    O    0.18609   0.59013   0.09531   1.000
    O309    O    0.22358   0.53713   0.03409   1.000
    O310    O    0.18609   0.09012   0.09531   1.000
    O311    O    0.22358   0.03712   0.03409   1.000
    O312    O    0.68609   0.09012   0.09532   1.000
    O313    O    0.68609   0.59013   0.09532   1.000
    O314    O    0.09616   0.41034   0.09545   1.000
    O315    O    0.18659   0.46309   0.03421   1.000
    O316    O    0.59616   0.91035   0.09545   1.000
    O317    O    0.09616   0.91035   0.09545   1.000
    O318    O    0.18659   0.96309   0.03421   1.000
    O319    O    0.59616   0.41034   0.09545   1.000
    O320    O    0.38409   0.44477   0.12840   1.000
    O321    O    0.88410   0.94477   0.12841   1.000
    O322    O    0.88410   0.44477   0.12841   1.000
    O323    O    0.38409   0.94477   0.12841   1.000
    O324    O    0.93920   0.55604   0.12842   1.000
    O325    O    0.93920   0.05603   0.12842   1.000
    O326    O    0.43920   0.55604   0.12842   1.000
    O327    O    0.43920   0.05603   0.12842   1.000
    O328    O    0.65882   0.63135   0.18621   1.000
    O329    O    0.65882   0.13134   0.18621   1.000
    O330    O    0.15882   0.63135   0.18621   1.000
    O331    O    0.15882   0.13134   0.18621   1.000
    O332    O    0.52754   0.86928   0.18623   1.000
    O333    O    0.02754   0.36927   0.16124   1.000
    O334    O    0.02754   0.86928   0.18623   1.000
    O335    O    0.52754   0.36927   0.18623   1.000
    O336    O    0.35003   0.97256   0.16027   1.000
    O337    O    0.37753   0.02807   0.16028   1.000
    O338    O    0.30938   0.00022   0.20447   1.000
    O339    O    0.29296   0.00013   0.07947   1.000
    O340    O    0.35003   0.47255   0.16027   1.000
    O341    O    0.37753   0.52808   0.16028   1.000
    O342    O    0.30938   0.50023   0.20447   1.000
    O343    O    0.29296   0.50014   0.07947   1.000
    O344    O    0.85003   0.97255   0.16027   1.000
    O345    O    0.87753   0.02807   0.16028   1.000
    O346    O    0.80939   0.00022   0.20447   1.000
    O347    O    0.85003   0.47256   0.16027   1.000
    O348    O    0.87753   0.52808   0.16028   1.000
    O349    O    0.80939   0.50023   0.20447   1.000
    O350    O    0.83379   0.42424   0.16119   1.000
    O351    O    0.83379   0.92425   0.16119   1.000
    O352    O    0.33379   0.42424   0.16119   1.000
    O353    O    0.33379   0.92425   0.16119   1.000
    O354    O    0.40917   0.07642   0.16121   1.000
    O355    O    0.90917   0.57643   0.16121   1.000
    O356    O    0.40917   0.57643   0.16123   1.000
    O357    O    0.90917   0.07642   0.16123   1.000
    O358    O    0.39116   0.44460   0.20580   1.000
    O359    O    0.89117   0.94461   0.20580   1.000
    O360    O    0.89117   0.44460   0.20580   1.000
    O361    O    0.39116   0.94461   0.20580   1.000
    O362    O    0.94646   0.55620   0.20581   1.000
    O363    O    0.44645   0.05620   0.20581   1.000
    O364    O    0.44645   0.55620   0.20581   1.000
    O365    O    0.94646   0.05620   0.20581   1.000
    O366    O    0.51897   0.50055   0.21703   1.000
    O367    O    0.51897   0.00054   0.21703   1.000
    O368    O    0.01898   0.50055   0.21703   1.000
    O369    O    0.01898   0.00055   0.21703   1.000
    O370    O    0.51008   0.80105   0.22499   1.000
    O371    O    0.54834   0.73774   0.22500   1.000
    O372    O    0.01008   0.30104   0.20000   1.000
    O373    O    0.91559   0.31368   0.22500   1.000
    O374    O    0.51008   0.30104   0.22499   1.000
    O375    O    0.54834   0.23774   0.22500   1.000
    O376    O    0.01008   0.80105   0.22499   1.000
    O377    O    0.04835   0.73774   0.22500   1.000
    O378    O    0.04835   0.23774   0.22500   1.000
    O379    O    0.41560   0.31368   0.24999   1.000
    O380    O    0.52754   0.36927   0.31375   1.000
    O381    O    0.41560   0.81369   0.24999   1.000
    O382    O    0.52754   0.86928   0.31375   1.000
    O383    O    0.91559   0.81369   0.24999   1.000
    O384    O    0.02754   0.86928   0.31375   1.000
    O385    O    0.81096   0.76293   0.25000   1.000
    O386    O    0.70963   0.69961   0.25000   1.000
    O387    O    0.27275   0.52062   0.25000   1.000
    O388    O    0.27275   0.02062   0.25000   1.000
    O389    O    0.20963   0.19960   0.25000   1.000
    O390    O    0.31096   0.26292   0.25000   1.000
    O391    O    0.31096   0.76293   0.25000   1.000
    O392    O    0.20963   0.69961   0.25000   1.000
    O393    O    0.81096   0.26292   0.25000   1.000
    O394    O    0.70963   0.19960   0.25000   1.000
    O395    O    0.25249   0.47967   0.25000   1.000
    O396    O    0.45843   0.47245   0.25000   1.000
    O397    O    0.39116   0.44460   0.29420   1.000
    O398    O    0.45843   0.97245   0.25000   1.000
    O399    O    0.39116   0.94461   0.29420   1.000
    O400    O    0.95843   0.47245   0.25000   1.000
    O401    O    0.89117   0.44461   0.29420   1.000
    O402    O    0.95843   0.97245   0.25000   1.000
    O403    O    0.89117   0.94461   0.29420   1.000
    O404    O    0.48621   0.02851   0.25000   1.000
    O405    O    0.44645   0.05620   0.29419   1.000
    O406    O    0.48622   0.52852   0.25000   1.000
    O407    O    0.44645   0.55621   0.29419   1.000
    O408    O    0.98622   0.02851   0.25000   1.000
    O409    O    0.94646   0.05620   0.29419   1.000
    O410    O    0.10254   0.18705   0.25000   1.000
    O411    O    0.15882   0.13134   0.31379   1.000
    O412    O    0.10254   0.68706   0.25000   1.000
    O413    O    0.98622   0.52852   0.25000   1.000
    O414    O    0.94646   0.55621   0.29419   1.000
    O415    O    0.01898   0.50055   0.28296   1.000
    O416    O    0.51897   0.00055   0.28296   1.000
    O417    O    0.51897   0.50055   0.28296   1.000
    O418    O    0.60254   0.68706   0.25000   1.000
    O419    O    0.60254   0.18705   0.25000   1.000
    O420    O    0.77275   0.02062   0.25000   1.000
    O421    O    0.25248   0.97967   0.25000   1.000
    O422    O    0.30938   0.00022   0.29552   1.000
    O423    O    0.30938   0.50023   0.29552   1.000
    O424    O    0.75249   0.97967   0.25000   1.000
    O425    O    0.80939   0.00022   0.29550   1.000
    O426    O    0.75249   0.47967   0.25000   1.000
    O427    O    0.77275   0.52062   0.25000   1.000
    O428    O    0.80939   0.50023   0.29550   1.000
    O429    O    0.01898   0.00055   0.28295   1.000
    O430    O    0.15882   0.63135   0.31379   1.000
    O431    O    0.65882   0.13134   0.31379   1.000
    O432    O    0.65882   0.63135   0.31379   1.000
    O433    O    0.90917   0.57643   0.33876   1.000
    O434    O    0.87753   0.52808   0.33969   1.000
    O435    O    0.93920   0.55604   0.37157   1.000
    O436    O    0.90917   0.07642   0.33876   1.000
    O437    O    0.87753   0.02807   0.33969   1.000
    O438    O    0.93920   0.05603   0.37157   1.000
    O439    O    0.40917   0.57643   0.33876   1.000
    O440    O    0.37753   0.52808   0.33971   1.000
    O441    O    0.43920   0.55604   0.37157   1.000
    O442    O    0.40917   0.07642   0.33876   1.000
    O443    O    0.37753   0.02807   0.33971   1.000
    O444    O    0.43920   0.05603   0.37157   1.000
    O445    O    0.83379   0.92425   0.33880   1.000
    O446    O    0.85003   0.97256   0.33970   1.000
    O447    O    0.88410   0.94478   0.37158   1.000
    O448    O    0.83379   0.42424   0.33880   1.000
    O449    O    0.85003   0.47256   0.33970   1.000
    O450    O    0.88410   0.44477   0.37158   1.000
    O451    O    0.33379   0.92425   0.33880   1.000
    O452    O    0.35003   0.97256   0.33972   1.000
    O453    O    0.38410   0.94478   0.37158   1.000
    O454    O    0.33379   0.42424   0.33880   1.000
    O455    O    0.35003   0.47256   0.33972   1.000
    O456    O    0.38409   0.44477   0.37158   1.000
    O457    O    0.79297   0.00013   0.42050   1.000
    O458    O    0.79296   0.50014   0.42050   1.000
    O459    O    0.29296   0.50014   0.42052   1.000
    O460    O    0.29296   0.00013   0.42052   1.000
    O461    O    0.59616   0.91035   0.40453   1.000
    O462    O    0.09616   0.41034   0.40453   1.000
    O463    O    0.09616   0.91035   0.40453   1.000
    O464    O    0.59616   0.41034   0.40453   1.000
    O465    O    0.18609   0.09012   0.40468   1.000
    O466    O    0.18609   0.59013   0.40468   1.000
    O467    O    0.68609   0.09012   0.40468   1.000
    O468    O    0.68609   0.59013   0.40468   1.000
    O469    O    0.18659   0.46309   0.46578   1.000
    O470    O    0.18659   0.96309   0.46578   1.000
    O471    O    0.68659   0.46309   0.46578   1.000
    O472    O    0.68659   0.96309   0.46578   1.000
    O473    O    0.22358   0.03712   0.46589   1.000
    O474    O    0.22358   0.53713   0.46589   1.000
    O475    O    0.72358   0.03712   0.46589   1.000
    O476    O    0.72358   0.53713   0.46589   1.000
    O477    O    0.77645   0.46289   0.53411   1.000
    O478    O    0.81343   0.53693   0.53422   1.000
    O479    O    0.70706   0.49988   0.57947   1.000
    O480    O    0.77645   0.96289   0.53411   1.000
    O481    O    0.81343   0.03692   0.53422   1.000
    O482    O    0.70706   0.99987   0.57947   1.000
    O483    O    0.27645   0.46289   0.53411   1.000
    O484    O    0.31343   0.53693   0.53422   1.000
    O485    O    0.20706   0.49988   0.57947   1.000
    O486    O    0.27645   0.96289   0.53411   1.000
    O487    O    0.31343   0.03692   0.53422   1.000
    O488    O    0.20706   0.99987   0.57947   1.000
    O489    O    0.31393   0.40989   0.59532   1.000
    O490    O    0.31393   0.90990   0.59532   1.000
    O491    O    0.81393   0.40989   0.59532   1.000
    O492    O    0.81393   0.90990   0.59532   1.000
    O493    O    0.40386   0.58968   0.59546   1.000
    O494    O    0.90386   0.58968   0.59546   1.000
    O495    O    0.90386   0.08967   0.59542   1.000
    O496    O    0.40386   0.08967   0.59546   1.000
    O497    O    0.56082   0.94399   0.62842   1.000
    O498    O    0.06082   0.44398   0.62842   1.000
    O499    O    0.06082   0.94399   0.62842   1.000
    O500    O    0.56082   0.44398   0.62842   1.000
    O501    O    0.11593   0.05524   0.62841   1.000
    O502    O    0.11593   0.55525   0.62841   1.000
    O503    O    0.61593   0.05524   0.62841   1.000
    O504    O    0.61593   0.55525   0.62841   1.000
    O505    O    0.97248   0.13074   0.68620   1.000
    O506    O    0.84120   0.86868   0.68621   1.000
    O507    O    0.34120   0.36867   0.68621   1.000
    O508    O    0.34120   0.86868   0.68621   1.000
    O509    O    0.84120   0.36867   0.68621   1.000
    O510    O    0.97248   0.63075   0.68624   1.000
    O511    O    0.47248   0.13074   0.68624   1.000
    O512    O    0.47248   0.63075   0.68624   1.000
    O513    O    0.65000   0.52746   0.66027   1.000
    O514    O    0.62249   0.47194   0.66028   1.000
    O515    O    0.69064   0.49979   0.70447   1.000
    O516    O    0.65000   0.02746   0.66027   1.000
    O517    O    0.62249   0.97194   0.66028   1.000
    O518    O    0.69064   0.99978   0.70447   1.000
    O519    O    0.15000   0.52746   0.66027   1.000
    O520    O    0.12249   0.47194   0.66028   1.000
    O521    O    0.19064   0.49979   0.70447   1.000
    O522    O    0.15000   0.02746   0.66027   1.000
    O523    O    0.12249   0.97194   0.66028   1.000
    O524    O    0.19064   0.99978   0.70447   1.000
    O525    O    0.16623   0.07577   0.66120   1.000
    O526    O    0.66624   0.57578   0.66120   1.000
    O527    O    0.66624   0.07577   0.66120   1.000
    O528    O    0.16623   0.57578   0.66120   1.000
    O529    O    0.09085   0.42359   0.66123   1.000
    O530    O    0.09085   0.92360   0.66123   1.000
    O531    O    0.59085   0.42359   0.66123   1.000
    O532    O    0.59085   0.92360   0.66123   1.000
    O533    O    0.60886   0.55542   0.70580   1.000
    O534    O    0.60886   0.05541   0.70580   1.000
    O535    O    0.10886   0.55542   0.70580   1.000
    O536    O    0.10886   0.05541   0.70580   1.000
    O537    O    0.05357   0.94382   0.70581   1.000
    O538    O    0.55357   0.94382   0.70581   1.000
    O539    O    0.55357   0.44382   0.70581   1.000
    O540    O    0.05357   0.44382   0.70581   1.000
    O541    O    0.48105   0.99946   0.71703   1.000
    O542    O    0.98037   0.49947   0.71703   1.000
    O543    O    0.98037   0.99946   0.71704   1.000
    O544    O    0.48105   0.49947   0.71704   1.000
    O545    O    0.74754   0.52035   0.75000   1.000
    O546    O    0.48995   0.69898   0.75000   1.000
    O547    O    0.45168   0.76229   0.75000   1.000
    O548    O    0.58443   0.68634   0.75000   1.000
    O549    O    0.47248   0.63075   0.81376   1.000
    O550    O    0.48995   0.19897   0.75000   1.000
    O551    O    0.58443   0.18633   0.75000   1.000
    O552    O    0.47248   0.13074   0.81376   1.000
    O553    O    0.98995   0.69898   0.75000   1.000
    O554    O    0.08443   0.68634   0.75000   1.000
    O555    O    0.97248   0.63075   0.81376   1.000
    O556    O    0.98995   0.19897   0.75000   1.000
    O557    O    0.08443   0.18634   0.75000   1.000
    O558    O    0.97248   0.13074   0.81376   1.000
    O559    O    0.79039   0.80042   0.75000   1.000
    O560    O    0.89748   0.81297   0.75000   1.000
    O561    O    0.84120   0.86868   0.81379   1.000
    O562    O    0.79039   0.30041   0.75000   1.000
    O563    O    0.89748   0.31296   0.75000   1.000
    O564    O    0.84120   0.36867   0.81379   1.000
    O565    O    0.29039   0.80042   0.75000   1.000
    O566    O    0.39749   0.81297   0.75000   1.000
    O567    O    0.34120   0.86868   0.81379   1.000
    O568    O    0.01313   0.97150   0.75000   1.000
    O569    O    0.05357   0.94382   0.79419   1.000
    O570    O    0.01313   0.47150   0.75000   1.000
    O571    O    0.05357   0.44382   0.79419   1.000
    O572    O    0.54159   0.52758   0.75000   1.000
    O573    O    0.60886   0.55542   0.79420   1.000
    O574    O    0.54159   0.02757   0.75000   1.000
    O575    O    0.60886   0.05541   0.79420   1.000
    O576    O    0.04092   0.52757   0.75000   1.000
    O577    O    0.10886   0.55542   0.79420   1.000
    O578    O    0.04092   0.02757   0.75000   1.000
    O579    O    0.10886   0.05541   0.79420   1.000
    O580    O    0.68907   0.73710   0.75000   1.000
    O581    O    0.68906   0.23709   0.75000   1.000
    O582    O    0.18907   0.73710   0.75000   1.000
    O583    O    0.18907   0.23709   0.75000   1.000
    O584    O    0.29039   0.30041   0.75000   1.000
    O585    O    0.74754   0.02034   0.75000   1.000
    O586    O    0.51381   0.47150   0.75000   1.000
    O587    O    0.55357   0.44382   0.79419   1.000
    O588    O    0.95168   0.76229   0.75000   1.000
    O589    O    0.95168   0.26228   0.75000   1.000
    O590    O    0.45168   0.26228   0.75000   1.000
    O591    O    0.51381   0.97150   0.75000   1.000
    O592    O    0.55357   0.94382   0.79419   1.000
    O593    O    0.24754   0.02034   0.75000   1.000
    O594    O    0.24754   0.52035   0.75000   1.000
    O595    O    0.22727   0.47940   0.75000   1.000
    O596    O    0.19064   0.49979   0.79552   1.000
    O597    O    0.22727   0.97939   0.75000   1.000
    O598    O    0.72727   0.47940   0.75000   1.000
    O599    O    0.72727   0.97939   0.75000   1.000
    O600    O    0.39748   0.31296   0.75000   1.000
    O601    O    0.34120   0.36867   0.81379   1.000
    O602    O    0.69064   0.49979   0.79552   1.000
    O603    O    0.69064   0.99978   0.79552   1.000
    O604    O    0.19064   0.99978   0.79552   1.000
    O605    O    0.98037   0.49947   0.78296   1.000
    O606    O    0.98037   0.99946   0.78296   1.000
    O607    O    0.48105   0.49947   0.78296   1.000
    O608    O    0.48105   0.99946   0.78296   1.000
    O609    O    0.09085   0.42359   0.83876   1.000
    O610    O    0.12249   0.47194   0.83971   1.000
    O611    O    0.06082   0.44398   0.87157   1.000
    O612    O    0.09085   0.92360   0.83874   1.000
    O613    O    0.12249   0.97194   0.83971   1.000
    O614    O    0.06082   0.94399   0.87157   1.000
    O615    O    0.59085   0.42359   0.83874   1.000
    O616    O    0.62249   0.47194   0.83971   1.000
    O617    O    0.56082   0.44398   0.87157   1.000
    O618    O    0.59085   0.92360   0.83876   1.000
    O619    O    0.62249   0.97194   0.83971   1.000
    O620    O    0.56082   0.94399   0.87157   1.000
    O621    O    0.16623   0.07577   0.83880   1.000
    O622    O    0.15000   0.02746   0.83972   1.000
    O623    O    0.11593   0.05524   0.87159   1.000
    O624    O    0.16623   0.57578   0.83880   1.000
    O625    O    0.15000   0.52747   0.83972   1.000
    O626    O    0.11593   0.55525   0.87155   1.000
    O627    O    0.66624   0.07577   0.83880   1.000
    O628    O    0.65000   0.02746   0.83972   1.000
    O629    O    0.61593   0.05524   0.87155   1.000
    O630    O    0.66624   0.57578   0.83880   1.000
    O631    O    0.65000   0.52747   0.83972   1.000
    O632    O    0.61593   0.55525   0.87159   1.000
    O633    O    0.20706   0.99987   0.92052   1.000
    O634    O    0.20706   0.49988   0.92052   1.000
    O635    O    0.90386   0.08967   0.90454   1.000
    O636    O    0.40386   0.58968   0.90454   1.000
    O637    O    0.90387   0.58968   0.90454   1.000
    O638    O    0.40386   0.08967   0.90454   1.000
    O639    O    0.81393   0.40989   0.90468   1.000
    O640    O    0.31393   0.40989   0.90464   1.000
    O641    O    0.31393   0.90990   0.90464   1.000
    O642    O    0.81393   0.90990   0.90468   1.000
    O643    O    0.31343   0.53693   0.96578   1.000
    O644    O    0.31343   0.03692   0.96578   1.000
    O645    O    0.27645   0.96289   0.96584   1.000
    O646    O    0.27645   0.46289   0.96584   1.000
loop_
    _geom_bond_atom_site_label_1
    _geom_bond_atom_site_label_2
    _geom_bond_distance
    _geom_bond_site_symmetry_2
    _ccdc_geom_bond_type
    C19    O296      1.16960      .   S
    C219   O296      1.16960      .   S
    C19    O297      1.16799      .   S
    C246   O297      1.16799      .   S
    C19    O298      1.26990      .   S
    C287   O298      1.26990      .   S
    C19    O299      1.26990  1_554   S
    C267   O299      1.26990      .   S
    C19    O300      1.16802  1_554   S
    C231   O300      1.16802      .   S
    C19    O301      1.16955  1_554   S
    C234   O301      1.16955      .   S
    C18    O302      1.16960  1_565   S
    C218   O302      1.16960      .   S
    C18    O303      1.16790      .   S
    C247   O303      1.16790      .   S
    C18    O304      1.26990  1_565   S
    C286   O304      1.26990      .   S
    C18    O305      1.26990  1_554   S
    C266   O305      1.26990      .   S
    C18    O306      1.16802  1_564   S
    C230   O306      1.16802      .   S
    C18    O307      1.16938  1_554   S
    C235   O307      1.16938      .   S
    C217   O308      0.58622      .   S
    C121   O308      0.58622      .   S
    C217   O309      1.16957      .   S
    C17    O309      1.16957  1_556   S
    C216   O310      0.58620      .   S
    C120   O310      0.58620      .   S
    C216   O311      1.16959      .   S
    C16    O311      1.16959  1_566   S
    C218   O312      0.58613      .   S
    C122   O312      0.58613      .   S
    C219   O313      0.58613      .   S
    C123   O313      0.58613      .   S
    C244   O314      0.58612      .   S
    C148   O314      0.58612      .   S
    C244   O315      1.16801      .   S
    C17    O315      1.16801  1_556   S
    C247   O316      0.58612      .   S
    C151   O316      0.58612      .   S
    C245   O317      0.58611      .   S
    C149   O317      0.58611      .   S
    C245   O318      1.16792      .   S
    C16    O318      1.16792  1_556   S
    C246   O319      0.58612      .   S
    C150   O319      0.58612      .   S
    C88    O320      0.54859      .   S
    C200   O320      0.54859      .   S
    C91    O321      0.54848      .   S
    C203   O321      0.54848      .   S
    C90    O322      0.54848      .   S
    C202   O322      0.54848      .   S
    C89    O323      0.54848      .   S
    C201   O323      0.54848      .   S
    C83    O324      0.54840      .   S
    C199   O324      0.54840      .   S
    C82    O325      0.54841      .   S
    C198   O325      0.54841      .   S
    C81    O326      0.54841      .   S
    C197   O326      0.54841      .   S
    C80    O327      0.54841      .   S
    C196   O327      0.54841      .   S
    C123   O328      1.12095      .   S
    C3     O328      1.12095      .   S
    C122   O329      1.12095      .   S
    C2     O329      1.12095      .   S
    C121   O330      1.12095      .   S
    C1     O330      1.12095      .   S
    C120   O331      1.12095      .   S
    C0     O331      1.12095      .   S
    C151   O332      1.12067      .   S
    C9     O332      1.12067      .   S
    C148   O333      0.88688      .   S
    C10    O333      0.88688  1_655   S
    C149   O334      1.12068      .   S
    C11    O334      1.12068  1_655   S
    C150   O335      1.12067      .   S
    C8     O335      1.12067      .   S
    C284   O336      0.74713  1_545   S
    C201   O336      0.74713      .   S
    C284   O337      0.74749      .   S
    C196   O337      0.74749      .   S
    C284   O338      0.74414      .   S
    C212   O338      0.74414      .   S
    C284   O339      1.26995      .   S
    C16    O339      1.26995  1_566   S
    C285   O340      0.74732      .   S
    C200   O340      0.74732      .   S
    C285   O341      0.74749      .   S
    C197   O341      0.74749      .   S
    C285   O342      0.74415      .   S
    C213   O342      0.74415      .   S
    C285   O343      1.26996      .   S
    C17    O343      1.26996  1_556   S
    C286   O344      0.74714  1_545   S
    C203   O344      0.74714      .   S
    C286   O345      0.74749      .   S
    C198   O345      0.74749      .   S
    C286   O346      0.74415      .   S
    C214   O346      0.74415      .   S
    C287   O347      0.74732      .   S
    C202   O347      0.74732      .   S
    C287   O348      0.74748      .   S
    C199   O348      0.74748      .   S
    C287   O349      0.74414      .   S
    C215   O349      0.74414      .   S
    C94    O350      0.54919      .   S
    C202   O350      0.54919      .   S
    C95    O351      0.54918      .   S
    C203   O351      0.54918      .   S
    C92    O352      0.54919      .   S
    C200   O352      0.54919      .   S
    C93    O353      0.54919      .   S
    C201   O353      0.54919      .   S
    C84    O354      0.54921      .   S
    C196   O354      0.54921      .   S
    C87    O355      0.54921      .   S
    C199   O355      0.54921      .   S
    C85    O356      0.54920      .   S
    C197   O356      0.54920      .   S
    C86    O357      0.54921      .   S
    C198   O357      0.54921      .   S
    C200   O358      0.73514      .   S
    C288   O358      0.73514      .   S
    C203   O359      0.73514      .   S
    C291   O359      0.73514      .   S
    C202   O360      0.73513      .   S
    C290   O360      0.73513      .   S
    C201   O361      0.73514      .   S
    C289   O361      0.73514      .   S
    C199   O362      0.73511      .   S
    C295   O362      0.73511      .   S
    C196   O363      0.73511      .   S
    C292   O363      0.73511      .   S
    C197   O364      0.73512      .   S
    C293   O364      0.73512      .   S
    C198   O365      0.73511      .   S
    C294   O365      0.73511      .   S
    C111   O366      0.54866      .   S
    C211   O366      0.54866      .   S
    C110   O367      0.54868      .   S
    C210   O367      0.54868      .   S
    C109   O368      0.54869      .   S
    C209   O368      0.54869  1_655   S
    C108   O369      0.54868      .   S
    C208   O369      0.54868  1_655   S
    C251   O370      1.22753      .   S
    C9     O370      1.22753      .   S
    C251   O371      0.67561      .   S
    C155   O371      0.67561      .   S
    C10    O372      1.18002  1_655   S
    C248   O372      1.18002      .   S
    C10    O373      1.14355      .   S
    C162   O373      1.14355      .   S
    C250   O374      1.22752      .   S
    C8     O374      1.22752      .   S
    C250   O375      0.67561      .   S
    C154   O375      0.67561      .   S
    C249   O376      1.22754      .   S
    C11    O376      1.22754  1_655   S
    C249   O377      0.67561      .   S
    C153   O377      0.67561      .   S
    C248   O378      0.67561      .   S
    C152   O378      0.67561      .   S
    C8     O379      1.09233      .   S
    C160   O379      1.09233      .   S
    C8     O380      1.12072      .   S
    C130   O380      1.12072      .   S
    C9     O381      1.09234      .   S
    C161   O381      1.09234      .   S
    C9     O382      1.12071      .   S
    C131   O382      1.12071      .   S
    C11    O383      1.09233      .   S
    C163   O383      1.09233      .   S
    C11    O384      1.12072  1_655   S
    C129   O384      1.12072      .   S
    C259   O385      0.58478      .   S
    C163   O385      0.58478      .   S
    C259   O386      1.17961      .   S
    C3     O386      1.17961      .   S
    C113   O387      0.54816      .   S
    C213   O387      0.54816      .   S
    C112   O388      0.54816      .   S
    C212   O388      0.54816      .   S
    C256   O389      1.17961      .   S
    C0     O389      1.17961      .   S
    C256   O390      0.58478      .   S
    C160   O390      0.58478      .   S
    C257   O391      0.58477      .   S
    C161   O391      0.58477      .   S
    C257   O392      1.17961      .   S
    C1     O392      1.17961      .   S
    C258   O393      0.58478      .   S
    C162   O393      0.58478      .   S
    C258   O394      1.17961      .   S
    C2     O394      1.17961      .   S
    C116   O395      0.54817      .   S
    C213   O395      0.54817      .   S
    C288   O396      0.73841      .   S
    C211   O396      0.73841      .   S
    C288   O397      0.73515      .   S
    C192   O397      0.73515      .   S
    C289   O398      0.73829      .   S
    C210   O398      0.73829  1_545   S
    C289   O399      0.73514      .   S
    C193   O399      0.73514      .   S
    C290   O400      0.73841      .   S
    C209   O400      0.73841      .   S
    C290   O401      0.73514      .   S
    C194   O401      0.73514      .   S
    C291   O402      0.73830      .   S
    C208   O402      0.73830  1_545   S
    C291   O403      0.73514      .   S
    C195   O403      0.73514      .   S
    C292   O404      0.73836      .   S
    C210   O404      0.73836      .   S
    C292   O405      0.73511      .   S
    C204   O405      0.73511      .   S
    C293   O406      0.73836      .   S
    C211   O406      0.73836      .   S
    C293   O407      0.73512      .   S
    C205   O407      0.73512      .   S
    C294   O408      0.73836      .   S
    C208   O408      0.73836      .   S
    C294   O409      0.73511      .   S
    C206   O409      0.73511      .   S
    C0     O410      1.09226      .   S
    C152   O410      1.09226      .   S
    C0     O411      1.12095      .   S
    C140   O411      1.12095      .   S
    C153   O412      1.09225      .   S
    C1     O412      1.09225      .   S
    C295   O413      0.73837      .   S
    C209   O413      0.73837      .   S
    C295   O414      0.73511      .   S
    C207   O414      0.73511      .   S
    C209   O415      0.54863  1_655   S
    C105   O415      0.54863      .   S
    C210   O416      0.54863      .   S
    C106   O416      0.54863      .   S
    C211   O417      0.54866      .   S
    C107   O417      0.54866      .   S
    C155   O418      1.09226      .   S
    C3     O418      1.09226      .   S
    C154   O419      1.09227      .   S
    C2     O419      1.09227      .   S
    C114   O420      0.54816      .   S
    C214   O420      0.54816      .   S
    C212   O421      0.54805  1_545   S
    C117   O421      0.54805      .   S
    C212   O422      0.74414      .   S
    C280   O422      0.74414      .   S
    C213   O423      0.74415      .   S
    C281   O423      0.74415      .   S
    C214   O424      0.54805  1_545   S
    C119   O424      0.54805      .   S
    C214   O425      0.74387      .   S
    C282   O425      0.74387      .   S
    C215   O426      0.54817      .   S
    C118   O426      0.54817      .   S
    C215   O427      0.54817      .   S
    C115   O427      0.54817      .   S
    C215   O428      0.74386      .   S
    C283   O428      0.74386      .   S
    C208   O429      0.54851  1_655   S
    C104   O429      0.54851      .   S
    C1     O430      1.12096      .   S
    C141   O430      1.12096      .   S
    C2     O431      1.12096      .   S
    C142   O431      1.12096      .   S
    C3     O432      1.12096      .   S
    C143   O432      1.12096      .   S
    C207   O433      0.54921      .   S
    C103   O433      0.54921      .   S
    C207   O434      0.74748      .   S
    C283   O434      0.74748      .   S
    C207   O435      0.54840      .   S
    C99    O435      0.54840      .   S
    C206   O436      0.54920      .   S
    C102   O436      0.54920      .   S
    C206   O437      0.74748      .   S
    C282   O437      0.74748      .   S
    C206   O438      0.54841      .   S
    C98    O438      0.54841      .   S
    C205   O439      0.54920      .   S
    C101   O439      0.54920      .   S
    C205   O440      0.74749      .   S
    C281   O440      0.74749      .   S
    C205   O441      0.54841      .   S
    C97    O441      0.54841      .   S
    C204   O442      0.54920      .   S
    C100   O442      0.54920      .   S
    C204   O443      0.74749      .   S
    C280   O443      0.74749      .   S
    C204   O444      0.54841      .   S
    C96    O444      0.54841      .   S
    C195   O445      0.54919      .   S
    C79    O445      0.54919      .   S
    C195   O446      0.74711      .   S
    C282   O446      0.74711  1_545   S
    C195   O447      0.54843      .   S
    C75    O447      0.54843      .   S
    C194   O448      0.54920      .   S
    C78    O448      0.54920      .   S
    C194   O449      0.74730      .   S
    C283   O449      0.74730      .   S
    C194   O450      0.54842      .   S
    C74    O450      0.54842      .   S
    C193   O451      0.54919      .   S
    C77    O451      0.54919      .   S
    C193   O452      0.74712      .   S
    C280   O452      0.74712  1_545   S
    C193   O453      0.54842      .   S
    C73    O453      0.54842      .   S
    C192   O454      0.54919      .   S
    C76    O454      0.54919      .   S
    C192   O455      0.74732      .   S
    C281   O455      0.74732      .   S
    C192   O456      0.54843      .   S
    C72    O456      0.54843      .   S
    C282   O457      1.27019      .   S
    C22    O457      1.27019      .   S
    C283   O458      1.27019      .   S
    C23    O458      1.27019      .   S
    C281   O459      1.26991      .   S
    C21    O459      1.26991      .   S
    C280   O460      1.26990      .   S
    C20    O460      1.26990      .   S
    C131   O461      0.58611      .   S
    C227   O461      0.58611      .   S
    C128   O462      0.58611      .   S
    C224   O462      0.58611      .   S
    C129   O463      0.58611      .   S
    C225   O463      0.58611      .   S
    C130   O464      0.58611      .   S
    C226   O464      0.58611      .   S
    C140   O465      0.58613      .   S
    C236   O465      0.58613      .   S
    C141   O466      0.58613      .   S
    C237   O466      0.58613      .   S
    C142   O467      0.58613      .   S
    C238   O467      0.58613      .   S
    C143   O468      0.58613      .   S
    C239   O468      0.58613      .   S
    C224   O469      1.16800      .   S
    C21    O469      1.16800      .   S
    C225   O470      1.16791      .   S
    C20    O470      1.16791  1_545   S
    C226   O471      1.16800      .   S
    C23    O471      1.16800      .   S
    C227   O472      1.16791      .   S
    C22    O472      1.16791  1_545   S
    C236   O473      1.16962      .   S
    C20    O473      1.16962      .   S
    C237   O474      1.16961      .   S
    C21    O474      1.16961      .   S
    C238   O475      1.16962      .   S
    C22    O475      1.16962      .   S
    C239   O476      1.16962      .   S
    C23    O476      1.16962      .   S
    C23    O477      1.16962      .   S
    C222   O477      1.16962      .   S
    C23    O478      1.16801      .   S
    C243   O478      1.16801      .   S
    C23    O479      1.26990      .   S
    C271   O479      1.26990      .   S
    C22    O480      1.16945  1_545   S
    C223   O480      1.16945      .   S
    C22    O481      1.16800      .   S
    C242   O481      1.16800      .   S
    C22    O482      1.26990  1_545   S
    C270   O482      1.26990      .   S
    C21    O483      1.16963      .   S
    C220   O483      1.16963      .   S
    C21    O484      1.16800      .   S
    C241   O484      1.16800      .   S
    C21    O485      1.26991      .   S
    C269   O485      1.26991      .   S
    C20    O486      1.16945  1_545   S
    C221   O486      1.16945      .   S
    C20    O487      1.16800      .   S
    C240   O487      1.16800      .   S
    C20    O488      1.26990  1_545   S
    C268   O488      1.26990      .   S
    C220   O489      0.58612      .   S
    C124   O489      0.58612      .   S
    C221   O490      0.58613      .   S
    C125   O490      0.58613      .   S
    C222   O491      0.58612      .   S
    C126   O491      0.58612      .   S
    C223   O492      0.58612      .   S
    C127   O492      0.58612      .   S
    C241   O493      0.58611      .   S
    C145   O493      0.58611      .   S
    C243   O494      0.58611      .   S
    C147   O494      0.58611      .   S
    C242   O495      0.58573      .   S
    C146   O495      0.58573      .   S
    C240   O496      0.58612      .   S
    C144   O496      0.58612      .   S
    C35    O497      0.54841      .   S
    C175   O497      0.54841      .   S
    C32    O498      0.54841      .   S
    C172   O498      0.54841      .   S
    C33    O499      0.54841      .   S
    C173   O499      0.54841      .   S
    C34    O500      0.54841      .   S
    C174   O500      0.54841      .   S
    C40    O501      0.54842      .   S
    C176   O501      0.54842      .   S
    C41    O502      0.54842      .   S
    C177   O502      0.54842      .   S
    C42    O503      0.54843      .   S
    C178   O503      0.54843      .   S
    C43    O504      0.54842      .   S
    C179   O504      0.54842      .   S
    C146   O505      1.12114      .   S
    C12    O505      1.12114  1_455   S
    C127   O506      1.12095      .   S
    C7     O506      1.12095      .   S
    C124   O507      1.12096      .   S
    C4     O507      1.12096      .   S
    C125   O508      1.12096      .   S
    C5     O508      1.12096      .   S
    C126   O509      1.12095      .   S
    C6     O509      1.12095      .   S
    C147   O510      1.12067      .   S
    C13    O510      1.12067  1_455   S
    C144   O511      1.12066      .   S
    C14    O511      1.12066      .   S
    C145   O512      1.12067      .   S
    C15    O512      1.12067      .   S
    C271   O513      0.74731      .   S
    C179   O513      0.74731      .   S
    C271   O514      0.74749      .   S
    C174   O514      0.74749      .   S
    C271   O515      0.74414      .   S
    C191   O515      0.74414      .   S
    C270   O516      0.74731  1_565   S
    C178   O516      0.74731      .   S
    C270   O517      0.74737      .   S
    C175   O517      0.74737      .   S
    C270   O518      0.74415      .   S
    C190   O518      0.74415      .   S
    C269   O519      0.74732      .   S
    C177   O519      0.74732      .   S
    C269   O520      0.74749      .   S
    C172   O520      0.74749      .   S
    C269   O521      0.74415      .   S
    C189   O521      0.74415      .   S
    C268   O522      0.74732  1_565   S
    C176   O522      0.74732      .   S
    C268   O523      0.74737      .   S
    C173   O523      0.74737      .   S
    C268   O524      0.74414      .   S
    C188   O524      0.74414      .   S
    C44    O525      0.54919      .   S
    C176   O525      0.54919      .   S
    C47    O526      0.54919      .   S
    C179   O526      0.54919      .   S
    C46    O527      0.54919      .   S
    C178   O527      0.54919      .   S
    C45    O528      0.54919      .   S
    C177   O528      0.54919      .   S
    C36    O529      0.54920      .   S
    C172   O529      0.54920      .   S
    C37    O530      0.54921      .   S
    C173   O530      0.54921      .   S
    C38    O531      0.54921      .   S
    C174   O531      0.54921      .   S
    C39    O532      0.54921      .   S
    C175   O532      0.54921      .   S
    C179   O533      0.73514      .   S
    C275   O533      0.73514      .   S
    C178   O534      0.73514      .   S
    C274   O534      0.73514      .   S
    C177   O535      0.73514      .   S
    C273   O535      0.73514      .   S
    C176   O536      0.73514      .   S
    C272   O536      0.73514      .   S
    C173   O537      0.73511      .   S
    C277   O537      0.73511      .   S
    C175   O538      0.73511      .   S
    C279   O538      0.73511      .   S
    C174   O539      0.73511      .   S
    C278   O539      0.73511      .   S
    C172   O540      0.73512      .   S
    C276   O540      0.73512      .   S
    C60    O541      0.54866      .   S
    C184   O541      0.54866      .   S
    C63    O542      0.54255      .   S
    C187   O542      0.54255  1_455   S
    C62    O543      0.54250      .   S
    C186   O543      0.54250  1_455   S
    C61    O544      0.54862      .   S
    C185   O544      0.54862      .   S
    C71    O545      0.54817      .   S
    C191   O545      0.54817      .   S
    C253   O546      1.18001      .   S
    C15    O546      1.18001      .   S
    C253   O547      0.58478      .   S
    C157   O547      0.58478      .   S
    C15    O548      1.09233      .   S
    C167   O548      1.09233      .   S
    C15    O549      1.12072      .   S
    C133   O549      1.12072      .   S
    C14    O550      1.18000      .   S
    C252   O550      1.18000      .   S
    C14    O551      1.09233      .   S
    C166   O551      1.09233      .   S
    C14    O552      1.12072      .   S
    C132   O552      1.12072      .   S
    C13    O553      1.18001  1_455   S
    C255   O553      1.18001      .   S
    C13    O554      1.09234      .   S
    C165   O554      1.09234      .   S
    C13    O555      1.12073  1_455   S
    C135   O555      1.12073      .   S
    C12    O556      1.18002  1_455   S
    C254   O556      1.18002      .   S
    C12    O557      1.09234      .   S
    C164   O557      1.09234      .   S
    C12    O558      1.12073  1_455   S
    C134   O558      1.12073      .   S
    C7     O559      1.17961      .   S
    C263   O559      1.17961      .   S
    C7     O560      1.09225      .   S
    C159   O560      1.09225      .   S
    C7     O561      1.12094      .   S
    C139   O561      1.12094      .   S
    C6     O562      1.17961      .   S
    C262   O562      1.17961      .   S
    C6     O563      1.09227      .   S
    C158   O563      1.09227      .   S
    C6     O564      1.12094      .   S
    C138   O564      1.12094      .   S
    C5     O565      1.17961      .   S
    C261   O565      1.17961      .   S
    C5     O566      1.09225      .   S
    C157   O566      1.09225      .   S
    C5     O567      1.12095      .   S
    C137   O567      1.12095      .   S
    C277   O568      0.74422      .   S
    C186   O568      0.74422      .   S
    C277   O569      0.73511      .   S
    C181   O569      0.73511      .   S
    C276   O570      0.74440      .   S
    C187   O570      0.74440      .   S
    C276   O571      0.73512      .   S
    C180   O571      0.73512      .   S
    C275   O572      0.73841      .   S
    C185   O572      0.73841      .   S
    C275   O573      0.73514      .   S
    C171   O573      0.73514      .   S
    C274   O574      0.73841      .   S
    C184   O574      0.73841  1_565   S
    C274   O575      0.73514      .   S
    C170   O575      0.73514      .   S
    C273   O576      0.74442      .   S
    C187   O576      0.74442      .   S
    C273   O577      0.73514      .   S
    C169   O577      0.73514      .   S
    C272   O578      0.74442      .   S
    C186   O578      0.74442  1_565   S
    C272   O579      0.73514      .   S
    C168   O579      0.73514      .   S
    C263   O580      0.58477      .   S
    C167   O580      0.58477      .   S
    C262   O581      0.58478      .   S
    C166   O581      0.58478      .   S
    C261   O582      0.58478      .   S
    C165   O582      0.58478      .   S
    C260   O583      0.58478      .   S
    C164   O583      0.58478      .   S
    C260   O584      1.17961      .   S
    C4     O584      1.17961      .   S
    C70    O585      0.54816      .   S
    C190   O585      0.54816  1_565   S
    C278   O586      0.73836      .   S
    C185   O586      0.73836      .   S
    C278   O587      0.73511      .   S
    C182   O587      0.73511      .   S
    C255   O588      0.58478      .   S
    C159   O588      0.58478      .   S
    C254   O589      0.58477      .   S
    C158   O589      0.58477      .   S
    C252   O590      0.58478      .   S
    C156   O590      0.58478      .   S
    C279   O591      0.73816      .   S
    C184   O591      0.73816      .   S
    C279   O592      0.73511      .   S
    C183   O592      0.73511      .   S
    C68    O593      0.54817      .   S
    C188   O593      0.54817  1_565   S
    C69    O594      0.54817      .   S
    C189   O594      0.54817      .   S
    C189   O595      0.54816      .   S
    C64    O595      0.54816      .   S
    C189   O596      0.74415      .   S
    C265   O596      0.74415      .   S
    C65    O597      0.54797      .   S
    C188   O597      0.54797      .   S
    C66    O598      0.54817      .   S
    C191   O598      0.54817      .   S
    C67    O599      0.54798      .   S
    C190   O599      0.54798      .   S
    C4     O600      1.09226      .   S
    C156   O600      1.09226      .   S
    C4     O601      1.12095      .   S
    C136   O601      1.12095      .   S
    C191   O602      0.74414      .   S
    C267   O602      0.74414      .   S
    C190   O603      0.74415      .   S
    C266   O603      0.74415      .   S
    C188   O604      0.74414      .   S
    C264   O604      0.74414      .   S
    C187   O605      0.54255  1_455   S
    C59    O605      0.54255      .   S
    C186   O606      0.54256  1_455   S
    C58    O606      0.54256      .   S
    C185   O607      0.54868      .   S
    C57    O607      0.54868      .   S
    C184   O608      0.54867      .   S
    C56    O608      0.54867      .   S
    C180   O609      0.54921      .   S
    C52    O609      0.54921      .   S
    C180   O610      0.74749      .   S
    C265   O610      0.74749      .   S
    C180   O611      0.54841      .   S
    C48    O611      0.54841      .   S
    C181   O612      0.54920      .   S
    C53    O612      0.54920      .   S
    C181   O613      0.74737      .   S
    C264   O613      0.74737      .   S
    C181   O614      0.54840      .   S
    C49    O614      0.54840      .   S
    C182   O615      0.54920      .   S
    C54    O615      0.54920      .   S
    C182   O616      0.74749      .   S
    C267   O616      0.74749      .   S
    C182   O617      0.54840      .   S
    C50    O617      0.54840      .   S
    C183   O618      0.54921      .   S
    C55    O618      0.54921      .   S
    C183   O619      0.74737      .   S
    C266   O619      0.74737      .   S
    C183   O620      0.54841      .   S
    C51    O620      0.54841      .   S
    C168   O621      0.54919      .   S
    C28    O621      0.54919      .   S
    C168   O622      0.74731      .   S
    C264   O622      0.74731  1_565   S
    C168   O623      0.54848      .   S
    C24    O623      0.54848      .   S
    C169   O624      0.54919      .   S
    C29    O624      0.54919      .   S
    C169   O625      0.74731      .   S
    C265   O625      0.74731      .   S
    C169   O626      0.54804      .   S
    C25    O626      0.54804      .   S
    C170   O627      0.54919      .   S
    C30    O627      0.54919      .   S
    C170   O628      0.74731      .   S
    C266   O628      0.74731  1_565   S
    C170   O629      0.54804      .   S
    C26    O629      0.54804      .   S
    C171   O630      0.54919      .   S
    C31    O630      0.54919      .   S
    C171   O631      0.74731      .   S
    C267   O631      0.74731      .   S
    C171   O632      0.54848      .   S
    C27    O632      0.54848      .   S
    C264   O633      1.26984      .   S
    C16    O633      1.26984      .   S
    C265   O634      1.26985      .   S
    C17    O634      1.26985      .   S
    C134   O635      0.58612      .   S
    C230   O635      0.58612      .   S
    C133   O636      0.58612      .   S
    C229   O636      0.58612      .   S
    C135   O637      0.58612      .   S
    C231   O637      0.58612      .   S
    C132   O638      0.58612      .   S
    C228   O638      0.58612      .   S
    C138   O639      0.58616      .   S
    C234   O639      0.58616      .   S
    C136   O640      0.58578      .   S
    C232   O640      0.58578      .   S
    C137   O641      0.58578      .   S
    C233   O641      0.58578      .   S
    C139   O642      0.58616      .   S
    C235   O642      0.58616      .   S
    C229   O643      1.16799      .   S
    C17    O643      1.16799      .   S
    C228   O644      1.16799      .   S
    C16    O644      1.16799  1_565   S
    C233   O645      1.16959      .   S
    C16    O645      1.16959      .   S
    C232   O646      1.16977      .   S
    C17    O646      1.16977      .   S
