# CIF file generated by openbabel 2.4.90, see http://openbabel.sf.net
data_I
_chemical_name_common ''
_cell_length_a 14.51
_cell_length_b 19.408
_cell_length_c 26.343
_cell_angle_alpha 90
_cell_angle_beta 90.001
_cell_angle_gamma 90.002
_space_group_name_H-M_alt 'P 1'
_space_group_name_Hall 'P 1'
loop_
    _symmetry_equiv_pos_as_xyz
    x,y,z
loop_
    _atom_site_label
    _atom_site_type_symbol
    _atom_site_fract_x
    _atom_site_fract_y
    _atom_site_fract_z
    _atom_site_occupancy
    H0      H    0.03841   0.94976   0.05963   1.000
    H1      H    0.53848   0.94974   0.05962   1.000
    H2      H    0.46168   0.05023   0.55965   1.000
    H3      H    0.96196   0.05017   0.55971   1.000
    H4      H    0.28811   0.55018   0.05969   1.000
    H5      H    0.78849   0.55028   0.05960   1.000
    H6      H    0.21152   0.44974   0.55962   1.000
    H7      H    0.71293   0.44999   0.55988   1.000
    C8      C    0.17391   0.31902   0.59525   1.000
    C9      C    0.67397   0.31904   0.59525   1.000
    C10     C    0.00247   0.99830   0.99889   1.000
    C11     C    0.50252   0.99829   0.99888   1.000
    C12     C    0.43592   0.65062   0.95764   1.000
    C13     C    0.93593   0.65063   0.95764   1.000
    O14     O    0.58964   0.76711   0.06668   1.000
    O15     O    0.20787   0.49796   0.54460   1.000
    O16     O    0.70996   0.49831   0.54507   1.000
    C17     C    0.32607   0.68099   0.09525   1.000
    C18     C    0.82610   0.68100   0.09525   1.000
    C19     C    0.49757   0.00172   0.49890   1.000
    C20     C    0.99773   0.00169   0.49891   1.000
    C21     C    0.06406   0.34940   0.45764   1.000
    C22     C    0.56408   0.34940   0.45765   1.000
    C23     C    0.42392   0.18099   0.59525   1.000
    C24     C    0.92394   0.18098   0.59525   1.000
    C25     C    0.25232   0.50171   0.99891   1.000
    C26     C    0.75252   0.50174   0.99888   1.000
    C27     C    0.18592   0.84941   0.95764   1.000
    C28     C    0.68593   0.84941   0.95764   1.000
    C29     C    0.07608   0.81903   0.09525   1.000
    C30     C    0.57610   0.81902   0.09525   1.000
    C31     C    0.24748   0.49828   0.49888   1.000
    C32     C    0.74826   0.49838   0.49890   1.000
    C33     C    0.31407   0.15062   0.45764   1.000
    C34     C    0.81408   0.15061   0.45764   1.000
    O35     O    0.36349   0.68594   0.94888   1.000
    O36     O    0.86350   0.68594   0.94888   1.000
    O37     O    0.00667   0.67509   0.98040   1.000
    O38     O    0.50668   0.67509   0.98045   1.000
    O39     O    0.46483   0.94691   0.98010   1.000
    O40     O    0.96483   0.94691   0.98010   1.000
    O41     O    0.22173   0.37133   0.58078   1.000
    O42     O    0.72188   0.37131   0.58081   1.000
    O43     O    0.16036   0.26711   0.56668   1.000
    O44     O    0.66038   0.26714   0.56668   1.000
    O45     O    0.04204   0.99798   0.04468   1.000
    O46     O    0.54213   0.99796   0.04467   1.000
    O47     O    0.13649   0.31409   0.44888   1.000
    O48     O    0.63650   0.31408   0.44888   1.000
    O49     O    0.49331   0.32494   0.48045   1.000
    O50     O    0.99332   0.32493   0.48045   1.000
    O51     O    0.03517   0.05313   0.48008   1.000
    O52     O    0.53517   0.05312   0.48009   1.000
    O53     O    0.27821   0.62869   0.08080   1.000
    O54     O    0.77827   0.62869   0.08078   1.000
    O55     O    0.33963   0.73289   0.06668   1.000
    O56     O    0.83964   0.73291   0.06668   1.000
    O57     O    0.45809   0.00200   0.54471   1.000
    O58     O    0.95849   0.00192   0.54479   1.000
    O59     O    0.11349   0.81409   0.94888   1.000
    O60     O    0.61350   0.81409   0.94888   1.000
    O61     O    0.25668   0.82494   0.98045   1.000
    O62     O    0.75669   0.82494   0.98045   1.000
    O63     O    0.21481   0.55313   0.98008   1.000
    O64     O    0.71483   0.55312   0.98010   1.000
    O65     O    0.47176   0.12869   0.58079   1.000
    O66     O    0.97180   0.12868   0.58080   1.000
    O67     O    0.41037   0.23290   0.56668   1.000
    O68     O    0.91038   0.23288   0.56668   1.000
    O69     O    0.29163   0.50194   0.04477   1.000
    O70     O    0.79214   0.50206   0.04460   1.000
    O71     O    0.38649   0.18593   0.44888   1.000
    O72     O    0.88650   0.18593   0.44888   1.000
    O73     O    0.24330   0.17508   0.48045   1.000
    O74     O    0.74331   0.17507   0.48045   1.000
    O75     O    0.28517   0.44690   0.48010   1.000
    O76     O    0.78520   0.44682   0.48000   1.000
    O77     O    0.02824   0.87133   0.08079   1.000
    O78     O    0.52826   0.87133   0.08078   1.000
    O79     O    0.08963   0.76712   0.06668   1.000
loop_
    _geom_bond_atom_site_label_1
    _geom_bond_atom_site_label_2
    _geom_bond_distance
    _geom_bond_site_symmetry_2
    _ccdc_geom_bond_type
    O70    H5        1.01729      .   S
    O70    C26       1.33453  1_554   S
    O46    H1        1.01677      .   S
    O46    C11       1.33619  1_554   S
    O45    H0        1.01678      .   S
    O45    C10       1.33592  1_554   S
    O69    H4        1.01668      .   S
    O69    C25       1.33599  1_554   S
    O79    C29       1.27282      .   S
    O14    C30       1.27284      .   S
    O56    C18       1.27284      .   S
    O55    C17       1.27276      .   S
    O78    C30       1.28751      .   S
    O54    C18       1.28751      .   S
    O77    C29       1.28745      .   S
    O53    C17       1.28741      .   S
    O72    C34       1.27571      .   S
    O71    C33       1.27571      .   S
    O47    C21       1.27572      .   S
    O48    C22       1.27571      .   S
    C33    O73       1.28095      .   S
    C34    O74       1.28100      .   S
    C21    O50       1.28067  1_455   S
    C22    O49       1.28091      .   S
    O76    C32       1.23951      .   S
    O51    C20       1.24011  1_455   S
    O52    C19       1.24041      .   S
    O75    C31       1.24030      .   S
    C31    O15       1.33449      .   S
    C32    O16       1.33720      .   S
    C19    O57       1.33587      .   S
    C20    O58       1.33602      .   S
    O15    H6        1.01751      .   S
    O57    H2        1.01674      .   S
    O58    H3        1.01675      .   S
    O16    H7        1.01664      .   S
    O67    C23       1.27280      .   S
    O43    C8        1.27281      .   S
    O68    C24       1.27274      .   S
    O44    C9        1.27273      .   S
    O41    C8        1.28751      .   S
    O65    C23       1.28745      .   S
    O66    C24       1.28742      .   S
    O42    C9        1.28733      .   S
    O35    C12       1.27570      .   S
    O36    C13       1.27571      .   S
    O59    C27       1.27572      .   S
    O60    C28       1.27572      .   S
    C12    O38       1.28092      .   S
    C13    O37       1.28000  1_655   S
    C27    O61       1.28089      .   S
    C28    O62       1.28090      .   S
    O63    C25       1.24037      .   S
    O64    C26       1.24029      .   S
    O40    C10       1.24020  1_655   S
    O39    C11       1.24029      .   S
