# CIF file generated by openbabel 2.4.90, see http://openbabel.sf.net
data_I
_chemical_name_common ''
_cell_length_a 14.51
_cell_length_b 19.408
_cell_length_c 26.343
_cell_angle_alpha 90
_cell_angle_beta 90.001
_cell_angle_gamma 90.002
_space_group_name_H-M_alt 'P 1'
_space_group_name_Hall 'P 1'
loop_
    _symmetry_equiv_pos_as_xyz
    x,y,z
loop_
    _atom_site_label
    _atom_site_type_symbol
    _atom_site_fract_x
    _atom_site_fract_y
    _atom_site_fract_z
    _atom_site_occupancy
    Ba0     Ba   0.69184   0.69248   0.99860   1.000
    Ba1     Ba   0.30816   0.30754   0.49861   1.000
    Ba2     Ba   0.80816   0.30751   0.49860   1.000
    Ba3     Ba   0.44183   0.80754   0.99860   1.000
    Ba4     Ba   0.94185   0.80755   0.99860   1.000
    Ba5     Ba   0.05815   0.19248   0.49860   1.000
    Ba6     Ba   0.55816   0.19248   0.49861   1.000
    H7      H    0.03841   0.94976   0.05963   1.000
    H8      H    0.53848   0.94974   0.05962   1.000
    Ba9     Ba   0.19183   0.69249   0.99860   1.000
    H10     H    0.46168   0.05023   0.55965   1.000
    H11     H    0.96196   0.05017   0.55971   1.000
    H12     H    0.28811   0.55018   0.05969   1.000
    H13     H    0.78849   0.55028   0.05960   1.000
    H14     H    0.21152   0.44974   0.55962   1.000
    H15     H    0.71293   0.44999   0.55988   1.000
    C16     C    0.17391   0.31902   0.59525   1.000
    C17     C    0.67397   0.31904   0.59525   1.000
    C18     C    0.00247   0.99830   0.99889   1.000
    C19     C    0.50252   0.99829   0.99888   1.000
    C20     C    0.43592   0.65062   0.95764   1.000
    C21     C    0.93593   0.65063   0.95764   1.000
    O22     O    0.58964   0.76711   0.06668   1.000
    O23     O    0.20787   0.49796   0.54460   1.000
    O24     O    0.70996   0.49831   0.54507   1.000
    C25     C    0.32607   0.68099   0.09525   1.000
    C26     C    0.82610   0.68100   0.09525   1.000
    C27     C    0.49757   0.00172   0.49890   1.000
    C28     C    0.99773   0.00169   0.49891   1.000
    C29     C    0.06406   0.34940   0.45764   1.000
    C30     C    0.56408   0.34940   0.45765   1.000
    C31     C    0.42392   0.18099   0.59525   1.000
    C32     C    0.92394   0.18098   0.59525   1.000
    C33     C    0.25232   0.50171   0.99891   1.000
    C34     C    0.75252   0.50174   0.99888   1.000
    C35     C    0.18592   0.84941   0.95764   1.000
    C36     C    0.68593   0.84941   0.95764   1.000
    C37     C    0.07608   0.81903   0.09525   1.000
    C38     C    0.57610   0.81902   0.09525   1.000
    C39     C    0.24748   0.49828   0.49888   1.000
    C40     C    0.74826   0.49838   0.49890   1.000
    C41     C    0.31407   0.15062   0.45764   1.000
    C42     C    0.81408   0.15061   0.45764   1.000
    O43     O    0.36349   0.68594   0.94888   1.000
    O44     O    0.86350   0.68594   0.94888   1.000
    O45     O    0.00667   0.67509   0.98040   1.000
    O46     O    0.50668   0.67509   0.98045   1.000
    O47     O    0.46483   0.94691   0.98010   1.000
    O48     O    0.96483   0.94691   0.98010   1.000
    O49     O    0.22173   0.37133   0.58078   1.000
    O50     O    0.72188   0.37131   0.58081   1.000
    O51     O    0.16036   0.26711   0.56668   1.000
    O52     O    0.66038   0.26714   0.56668   1.000
    O53     O    0.04204   0.99798   0.04468   1.000
    O54     O    0.54213   0.99796   0.04467   1.000
    O55     O    0.13649   0.31409   0.44888   1.000
    O56     O    0.63650   0.31408   0.44888   1.000
    O57     O    0.49331   0.32494   0.48045   1.000
    O58     O    0.99332   0.32493   0.48045   1.000
    O59     O    0.03517   0.05313   0.48008   1.000
    O60     O    0.53517   0.05312   0.48009   1.000
    O61     O    0.27821   0.62869   0.08080   1.000
    O62     O    0.77827   0.62869   0.08078   1.000
    O63     O    0.33963   0.73289   0.06668   1.000
    O64     O    0.83964   0.73291   0.06668   1.000
    O65     O    0.45809   0.00200   0.54471   1.000
    O66     O    0.95849   0.00192   0.54479   1.000
    O67     O    0.11349   0.81409   0.94888   1.000
    O68     O    0.61350   0.81409   0.94888   1.000
    O69     O    0.25668   0.82494   0.98045   1.000
    O70     O    0.75669   0.82494   0.98045   1.000
    O71     O    0.21481   0.55313   0.98008   1.000
    O72     O    0.71483   0.55312   0.98010   1.000
    O73     O    0.47176   0.12869   0.58079   1.000
    O74     O    0.97180   0.12868   0.58080   1.000
    O75     O    0.41037   0.23290   0.56668   1.000
    O76     O    0.91038   0.23288   0.56668   1.000
    O77     O    0.29163   0.50194   0.04477   1.000
    O78     O    0.79214   0.50206   0.04460   1.000
    O79     O    0.38649   0.18593   0.44888   1.000
    O80     O    0.88650   0.18593   0.44888   1.000
    O81     O    0.24330   0.17508   0.48045   1.000
    O82     O    0.74331   0.17507   0.48045   1.000
    O83     O    0.28517   0.44690   0.48010   1.000
    O84     O    0.78520   0.44682   0.48000   1.000
    O85     O    0.02824   0.87133   0.08079   1.000
    O86     O    0.52826   0.87133   0.08078   1.000
    O87     O    0.08963   0.76712   0.06668   1.000
loop_
    _geom_bond_atom_site_label_1
    _geom_bond_atom_site_label_2
    _geom_bond_distance
    _geom_bond_site_symmetry_2
    _ccdc_geom_bond_type
    O78    H13       1.01729      .   S
    O78    C34       1.33453  1_554   S
    O54    H8        1.01677      .   S
    O54    C19       1.33619  1_554   S
    O53    H7        1.01678      .   S
    O53    C18       1.33592  1_554   S
    O77    H12       1.01668      .   S
    O77    C33       1.33599  1_554   S
    O87    C37       1.27282      .   S
    O87    Ba9       2.74107  1_554   S
    O22    C38       1.27284      .   S
    O22    Ba0       2.74102  1_554   S
    O64    C26       1.27284      .   S
    O64    Ba4       2.74113  1_554   S
    O63    C25       1.27276      .   S
    O63    Ba3       2.74132  1_554   S
    O86    C38       1.28751      .   S
    O62    C26       1.28751      .   S
    O85    C37       1.28745      .   S
    O61    C25       1.28741      .   S
    O80    C42       1.27571      .   S
    O79    C41       1.27571      .   S
    O55    C29       1.27572      .   S
    O56    C30       1.27571      .   S
    C41    O81       1.28095      .   S
    C42    O82       1.28100      .   S
    C29    O58       1.28067  1_455   S
    C30    O57       1.28091      .   S
    O84    C40       1.23951      .   S
    O59    C28       1.24011  1_455   S
    O60    C27       1.24041      .   S
    O83    C39       1.24030      .   S
    O81    Ba5       2.74967      .   S
    O82    Ba6       2.74965      .   S
    O58    Ba2       2.74974      .   S
    O57    Ba1       2.74964      .   S
    Ba2    O76       2.74117      .   S
    Ba5    O51       2.74110      .   S
    Ba1    O75       2.74105      .   S
    Ba6    O52       2.74121      .   S
    C39    O23       1.33449      .   S
    C40    O24       1.33720      .   S
    C27    O65       1.33587      .   S
    C28    O66       1.33602      .   S
    O23    H14       1.01751      .   S
    O65    H10       1.01674      .   S
    O66    H11       1.01675      .   S
    O24    H15       1.01664      .   S
    O75    C31       1.27280      .   S
    O51    C16       1.27281      .   S
    O76    C32       1.27274      .   S
    O52    C17       1.27273      .   S
    O49    C16       1.28751      .   S
    O73    C31       1.28745      .   S
    O74    C32       1.28742      .   S
    O50    C17       1.28733      .   S
    O43    C20       1.27570      .   S
    O44    C21       1.27571      .   S
    O67    C35       1.27572      .   S
    O68    C36       1.27572      .   S
    C20    O46       1.28092      .   S
    C21    O45       1.28000  1_655   S
    C35    O69       1.28089      .   S
    C36    O70       1.28090      .   S
    O71    C33       1.24037      .   S
    O72    C34       1.24029      .   S
    O48    C18       1.24020  1_655   S
    O47    C19       1.24029      .   S
    O45    Ba9       2.74988      .   S
    O69    Ba3       2.74960      .   S
    O70    Ba4       2.74963      .   S
    O46    Ba0       2.74960      .   S
    O43    Ba9       2.81712      .   S
    O43    Ba3       2.92875      .   S
    O44    Ba0       2.81716      .   S
    O44    Ba4       2.92884      .   S
    O45    Ba4       2.77911  1_455   S
    O46    Ba3       2.77897      .   S
    O47    Ba3       2.76846      .   S
    O48    Ba4       2.76841      .   S
    O49    Ba1       2.79125      .   S
    O50    Ba2       2.79118      .   S
    O51    Ba1       2.90347      .   S
    O52    Ba2       2.90322      .   S
    O55    Ba1       2.81724      .   S
    O55    Ba5       2.92881      .   S
    O56    Ba2       2.81711      .   S
    O56    Ba6       2.92864      .   S
    O57    Ba6       2.77901      .   S
    O58    Ba5       2.77883  1_655   S
    O59    Ba5       2.76829      .   S
    O60    Ba6       2.76857      .   S
    O61    Ba9       2.79161  1_554   S
    O62    Ba0       2.79151  1_554   S
    O63    Ba9       2.90349  1_554   S
    O64    Ba0       2.90369  1_554   S
    O67    Ba9       2.92879      .   S
    O67    Ba4       2.81686  1_455   S
    O68    Ba0       2.92885      .   S
    O68    Ba3       2.81711      .   S
    O69    Ba9       2.77893      .   S
    O70    Ba0       2.77896      .   S
    O71    Ba9       2.76840      .   S
    O72    Ba0       2.76845      .   S
    O73    Ba6       2.79130      .   S
    O74    Ba5       2.79132  1_655   S
    O75    Ba6       2.90337      .   S
    O76    Ba5       2.90320  1_655   S
    O79    Ba1       2.92894      .   S
    O79    Ba6       2.81717      .   S
    O80    Ba2       2.92846      .   S
    O80    Ba5       2.81686  1_655   S
    O81    Ba1       2.77900      .   S
    O82    Ba2       2.77867      .   S
    O83    Ba1       2.76849      .   S
    O84    Ba2       2.76794      .   S
    O85    Ba4       2.79134  1_454   S
    O86    Ba3       2.79137  1_554   S
    O87    Ba4       2.90349  1_454   S
    O22    Ba3       2.90377  1_554   S
