# CIF file generated by openbabel 2.4.90, see http://openbabel.sf.net
data_I
_chemical_name_common ''
_cell_length_a 14.51
_cell_length_b 19.408
_cell_length_c 26.343
_cell_angle_alpha 90
_cell_angle_beta 90.001
_cell_angle_gamma 90.002
_space_group_name_H-M_alt 'P 1'
_space_group_name_Hall 'P 1'
loop_
    _symmetry_equiv_pos_as_xyz
    x,y,z
loop_
    _atom_site_label
    _atom_site_type_symbol
    _atom_site_fract_x
    _atom_site_fract_y
    _atom_site_fract_z
    _atom_site_occupancy
    Zr0     Zr   0.19183   0.69249   0.99860   1.000
    Zr1     Zr   0.69184   0.69248   0.99860   1.000
    Zr2     Zr   0.30816   0.30754   0.49861   1.000
    Zr3     Zr   0.80816   0.30751   0.49860   1.000
    Zr4     Zr   0.44183   0.80754   0.99860   1.000
    Zr5     Zr   0.94185   0.80755   0.99860   1.000
    Zr6     Zr   0.05815   0.19248   0.49860   1.000
    Zr7     Zr   0.55816   0.19248   0.49861   1.000
    N8      N    0.47582   0.68336   0.35496   1.000
    N9      N    0.97551   0.68336   0.35479   1.000
    N10     N    0.27418   0.18336   0.85497   1.000
    N11     N    0.52419   0.31666   0.85497   1.000
    N12     N    0.02419   0.31666   0.85496   1.000
    N13     N    0.77420   0.18336   0.85497   1.000
    N14     N    0.72584   0.81665   0.35479   1.000
    N15     N    0.22580   0.81666   0.35496   1.000
    C16     C    0.18533   0.31915   0.58090   1.000
    O17     O    0.13777   0.31831   0.65967   1.000
    O18     O    0.14729   0.27447   0.55677   1.000
    C19     C    0.68541   0.31916   0.58091   1.000
    O20     O    0.63782   0.31832   0.65968   1.000
    O21     O    0.64734   0.27449   0.55678   1.000
    C22     C    0.48813   0.02677   0.52084   1.000
    O23     O    0.48689   0.92631   0.47048   1.000
    O24     O    0.51740   0.07479   0.50509   1.000
    C25     C    0.93538   0.18085   0.58091   1.000
    O26     O    0.88780   0.18170   0.65968   1.000
    O27     O    0.89732   0.22552   0.55677   1.000
    C28     C    0.06462   0.32947   0.46232   1.000
    O29     O    0.04144   0.43204   0.43202   1.000
    O30     O    0.98268   0.32285   0.47592   1.000
    O31     O    0.14347   0.32014   0.46803   1.000
    C32     C    0.56463   0.32947   0.46233   1.000
    O33     O    0.54153   0.43204   0.43207   1.000
    O34     O    0.64348   0.32013   0.46803   1.000
    O35     O    0.48268   0.32286   0.47593   1.000
    C36     C    0.98834   0.02673   0.52087   1.000
    O37     O    0.98695   0.92628   0.47046   1.000
    O38     O    0.01750   0.07477   0.50511   1.000
    C39     C    0.23801   0.47322   0.52080   1.000
    O40     O    0.23681   0.57369   0.47046   1.000
    O41     O    0.26733   0.42522   0.50508   1.000
    C42     C    0.43535   0.18086   0.58091   1.000
    O43     O    0.38778   0.18171   0.65967   1.000
    O44     O    0.39730   0.22554   0.55678   1.000
    C45     C    0.73909   0.47338   0.52096   1.000
    O46     O    0.73750   0.57379   0.47050   1.000
    O47     O    0.76788   0.42527   0.50513   1.000
    C48     C    0.81463   0.17053   0.46232   1.000
    O49     O    0.79153   0.06797   0.43202   1.000
    O50     O    0.89347   0.17987   0.46803   1.000
    O51     O    0.73268   0.17715   0.47593   1.000
    C52     C    0.31462   0.17054   0.46232   1.000
    O53     O    0.39347   0.17988   0.46803   1.000
    O54     O    0.29151   0.06798   0.43206   1.000
    O55     O    0.23267   0.17716   0.47592   1.000
    C56     C    0.26172   0.52674   0.02086   1.000
    O57     O    0.26301   0.42629   0.97049   1.000
    O58     O    0.23252   0.57478   0.00510   1.000
    C59     C    0.76200   0.52680   0.02079   1.000
    O60     O    0.76320   0.42633   0.97046   1.000
    O61     O    0.73266   0.57480   0.00507   1.000
    C62     C    0.51199   0.97323   0.02082   1.000
    O63     O    0.51319   0.07370   0.97047   1.000
    O64     O    0.48266   0.92523   0.00508   1.000
    C65     C    0.01194   0.97324   0.02082   1.000
    O66     O    0.01316   0.07370   0.97047   1.000
    O67     O    0.98264   0.92523   0.00509   1.000
    C68     C    0.81467   0.68087   0.08090   1.000
    O69     O    0.86216   0.68171   0.15963   1.000
    O70     O    0.85271   0.72555   0.05677   1.000
    C71     C    0.31464   0.68085   0.08091   1.000
    O72     O    0.36221   0.68170   0.15967   1.000
    O73     O    0.35268   0.72554   0.05677   1.000
    C74     C    0.93537   0.67055   0.96231   1.000
    O75     O    0.95848   0.56798   0.93206   1.000
    O76     O    0.85652   0.67988   0.96802   1.000
    O77     O    0.01731   0.67717   0.97590   1.000
    C78     C    0.43536   0.67055   0.96232   1.000
    O79     O    0.45848   0.56798   0.93207   1.000
    O80     O    0.35651   0.67988   0.96803   1.000
    O81     O    0.51731   0.67717   0.97592   1.000
    C82     C    0.06465   0.81916   0.08091   1.000
    O83     O    0.11222   0.81831   0.15967   1.000
    O84     O    0.10269   0.77448   0.05677   1.000
    C85     C    0.56467   0.81915   0.08090   1.000
    O86     O    0.60270   0.77448   0.05677   1.000
    O87     O    0.61224   0.81831   0.15963   1.000
    C88     C    0.68537   0.82948   0.96232   1.000
    O89     O    0.70849   0.93204   0.93207   1.000
    O90     O    0.76732   0.82286   0.97592   1.000
    O91     O    0.60652   0.82015   0.96803   1.000
    C92     C    0.18536   0.82948   0.96232   1.000
    O93     O    0.10652   0.82015   0.96803   1.000
    O94     O    0.26731   0.82286   0.97592   1.000
    O95     O    0.20847   0.93205   0.93207   1.000
    O96     O    0.81308   0.20727   0.47198   1.000
    O97     O    0.71753   0.31626   0.55854   1.000
    O98     O    0.56308   0.29273   0.47198   1.000
    O99     O    0.78253   0.68375   0.05853   1.000
    O100    O    0.93692   0.70729   0.97196   1.000
    O101    O    0.68692   0.79274   0.97198   1.000
    O102    O    0.43691   0.70729   0.97198   1.000
    O103    O    0.53253   0.81627   0.05853   1.000
    O104    O    0.03252   0.81627   0.05854   1.000
    O105    O    0.18691   0.79274   0.97198   1.000
    O106    O    0.28250   0.68375   0.05854   1.000
    O107    O    0.06307   0.29273   0.47198   1.000
    O108    O    0.96750   0.18374   0.55854   1.000
    O109    O    0.46748   0.18375   0.55854   1.000
    O110    O    0.31307   0.20728   0.47198   1.000
    O111    O    0.21747   0.31627   0.55854   1.000
loop_
    _geom_bond_atom_site_label_1
    _geom_bond_atom_site_label_2
    _geom_bond_distance
    _geom_bond_site_symmetry_2
    _ccdc_geom_bond_type
    C16    O17       2.18675      .   S
    N12    O17       5.40218      .   S
    C16    O18       1.20857      .   S
    Zr6    O18       2.56000      .   S
    C19    O20       2.18682      .   S
    N11    O20       5.40250      .   S
    C19    O21       1.20875      .   S
    Zr7    O21       2.56030      .   S
    C22    O23       2.35826  1_545   S
    N8     O23       5.61410      .   S
    C22    O24       1.10492      .   S
    Zr7    O24       2.36579      .   S
    C25    O26       2.18681      .   S
    N13    O26       5.40246      .   S
    C25    O27       1.20864      .   S
    Zr3    O27       2.56013      .   S
    C28    O29       2.17092      .   S
    N9     O29       5.37084  1_655   S
    C28    O30       1.24842  1_455   S
    Zr3    O30       2.61878      .   S
    C28    O31       1.16809      .   S
    Zr2    O31       2.53350      .   S
    C32    O33       2.17034      .   S
    N8     O33       5.36904      .   S
    C32    O34       1.16809      .   S
    Zr3    O34       2.53343      .   S
    C32    O35       1.24850      .   S
    Zr2    O35       2.61881      .   S
    C36    O37       2.35891  1_545   S
    N9     O37       5.61596      .   S
    C36    O38       1.10487  1_655   S
    Zr6    O38       2.36569      .   S
    C39    O40       2.35826      .   S
    N15    O40       5.61413      .   S
    C39    O41       1.10477      .   S
    Zr2    O41       2.36567      .   S
    C42    O43       2.18681      .   S
    N10    O43       5.40241      .   S
    C42    O44       1.20862      .   S
    Zr2    O44       2.56004      .   S
    C45    O46       2.35904      .   S
    N14    O46       5.61585      .   S
    C45    O47       1.10464      .   S
    Zr3    O47       2.36534      .   S
    C48    O49       2.17066      .   S
    N14    O49       5.37003  1_565   S
    C48    O50       1.16805      .   S
    Zr6    O50       2.53327  1_455   S
    C48    O51       1.24853      .   S
    Zr7    O51       2.61884      .   S
    C52    O53       1.16811      .   S
    Zr7    O53       2.53348      .   S
    C52    O54       2.17031      .   S
    N15    O54       5.36890  1_565   S
    C52    O55       1.24851      .   S
    Zr6    O55       2.61883      .   S
    C56    O57       2.35827  1_554   S
    N10    O57       5.61405      .   S
    C56    O58       1.10500      .   S
    Zr0    O58       2.36583  1_556   S
    C59    O60       2.35816  1_554   S
    N13    O60       5.61398      .   S
    C59    O61       1.10481      .   S
    Zr1    O61       2.36572  1_556   S
    C62    O63       2.35833  1_564   S
    N11    O63       5.61410      .   S
    C62    O64       1.10486      .   S
    Zr4    O64       2.36568  1_556   S
    C65    O66       2.35833  1_564   S
    N12    O66       5.61417      .   S
    C65    O67       1.10482  1_455   S
    Zr5    O67       2.36565  1_556   S
    C68    O69       2.18535      .   S
    N9     O69       5.39799      .   S
    C68    O70       1.20860      .   S
    Zr5    O70       2.56005  1_556   S
    C71    O72       2.18677      .   S
    N8     O72       5.40221      .   S
    C71    O73       1.20871      .   S
    Zr4    O73       2.56029  1_556   S
    C74    O75       2.17029      .   S
    N12    O75       5.36900  1_455   S
    C74    O76       1.16810      .   S
    Zr1    O76       2.53352      .   S
    C74    O77       1.24835  1_655   S
    Zr0    O77       2.61881      .   S
    C78    O79       2.17034      .   S
    N11    O79       5.36897      .   S
    C78    O80       1.16811      .   S
    Zr0    O80       2.53347      .   S
    C78    O81       1.24848      .   S
    Zr1    O81       2.61876      .   S
    C82    O83       2.18672      .   S
    N15    O83       5.40215      .   S
    C82    O84       1.20860      .   S
    Zr0    O84       2.56002  1_556   S
    C85    O86       1.20857      .   S
    Zr1    O86       2.55996  1_556   S
    C85    O87       2.18573      .   S
    N14    O87       5.39911      .   S
    C88    O89       2.17027      .   S
    N13    O89       5.36880  1_545   S
    C88    O90       1.24849      .   S
    Zr5    O90       2.61879      .   S
    C88    O91       1.16812      .   S
    Zr4    O91       2.53347      .   S
    C92    O93       1.16804      .   S
    Zr5    O93       2.53326  1_655   S
    C92    O94       1.24848      .   S
    Zr4    O94       2.61876      .   S
    C92    O95       2.17027      .   S
    N10    O95       5.36878  1_545   S
    Zr3    O96       2.06925      .   S
    C48    O96       0.75729      .   S
    Zr3    O97       2.06202      .   S
    C19    O97       0.75342      .   S
    C32    O98       0.75736      .   S
    Zr7    O98       2.06947      .   S
    C68    O99       0.75354      .   S
    Zr1    O99       2.06236  1_556   S
    C74    O100      0.75740      .   S
    Zr5    O100      2.06968      .   S
    C88    O101      0.75738      .   S
    Zr1    O101      2.06953      .   S
    C78    O102      0.75737      .   S
    Zr4    O102      2.06951      .   S
    C85    O103      0.75354      .   S
    Zr4    O103      2.06234  1_556   S
    Zr5    O104      2.06219  1_656   S
    C82    O104      0.75348      .   S
    Zr0    O105      2.06950      .   S
    C92    O105      0.75737      .   S
    Zr0    O106      2.06229  1_556   S
    C71    O106      0.75351      .   S
    Zr6    O107      2.06951      .   S
    C28    O107      0.75737      .   S
    Zr6    O108      2.06206  1_455   S
    C25    O108      0.75343      .   S
    Zr7    O109      2.06213      .   S
    C42    O109      0.75346      .   S
    C52    O110      0.75740      .   S
    Zr2    O110      2.06958      .   S
    Zr2    O111      2.06216      .   S
    C16    O111      0.75347      .   S
