# CIF file generated by openbabel 2.4.90, see http://openbabel.sf.net
data_I
_chemical_name_common ''
_cell_length_a 14.51
_cell_length_b 19.408
_cell_length_c 26.343
_cell_angle_alpha 90
_cell_angle_beta 90.001
_cell_angle_gamma 90.002
_space_group_name_H-M_alt 'P 1'
_space_group_name_Hall 'P 1'
loop_
    _symmetry_equiv_pos_as_xyz
    x,y,z
loop_
    _atom_site_label
    _atom_site_type_symbol
    _atom_site_fract_x
    _atom_site_fract_y
    _atom_site_fract_z
    _atom_site_occupancy
    Zr0     Zr   0.19183   0.69249   0.99860   1.000
    Zr1     Zr   0.69184   0.69248   0.99860   1.000
    Zr2     Zr   0.30816   0.30754   0.49861   1.000
    Zr3     Zr   0.80816   0.30751   0.49860   1.000
    Zr4     Zr   0.44183   0.80754   0.99860   1.000
    Zr5     Zr   0.94185   0.80755   0.99860   1.000
    Zr6     Zr   0.05815   0.19248   0.49860   1.000
    Zr7     Zr   0.55816   0.19248   0.49861   1.000
    N8      N    0.47582   0.68336   0.35496   1.000
    N9      N    0.97551   0.68336   0.35479   1.000
    N10     N    0.27418   0.18336   0.85497   1.000
    N11     N    0.52419   0.31666   0.85497   1.000
    N12     N    0.02419   0.31666   0.85496   1.000
    N13     N    0.77420   0.18336   0.85497   1.000
    N14     N    0.72584   0.81665   0.35479   1.000
    N15     N    0.22580   0.81666   0.35496   1.000
    C16     C    0.18533   0.31915   0.58090   1.000
    O17     O    0.13777   0.31831   0.65967   1.000
    O18     O    0.14729   0.27447   0.55677   1.000
    O19     O    0.20980   0.30324   0.55677   1.000
    O20     O    0.22514   0.32929   0.56030   1.000
    C21     C    0.68541   0.31916   0.58091   1.000
    O22     O    0.63782   0.31832   0.65968   1.000
    O23     O    0.64734   0.27449   0.55678   1.000
    O24     O    0.70984   0.30324   0.55678   1.000
    O25     O    0.72522   0.32928   0.56031   1.000
    C26     C    0.48813   0.02677   0.52084   1.000
    O27     O    0.48689   0.92631   0.47048   1.000
    O28     O    0.51740   0.07479   0.50509   1.000
    C29     C    0.93538   0.18085   0.58091   1.000
    O30     O    0.88780   0.18170   0.65968   1.000
    O31     O    0.97518   0.17072   0.56030   1.000
    O32     O    0.89732   0.22552   0.55677   1.000
    O33     O    0.95982   0.19677   0.55677   1.000
    C34     C    0.06462   0.32947   0.46232   1.000
    O35     O    0.04144   0.43204   0.43202   1.000
    O36     O    0.98268   0.32285   0.47592   1.000
    O37     O    0.04518   0.29409   0.47592   1.000
    O38     O    0.14347   0.32014   0.46803   1.000
    O39     O    0.08097   0.29138   0.46803   1.000
    C40     C    0.56463   0.32947   0.46233   1.000
    O41     O    0.54153   0.43204   0.43207   1.000
    O42     O    0.58098   0.29138   0.46804   1.000
    O43     O    0.64348   0.32013   0.46803   1.000
    O44     O    0.48268   0.32286   0.47593   1.000
    O45     O    0.54518   0.29409   0.47593   1.000
    C46     C    0.98834   0.02673   0.52087   1.000
    O47     O    0.98695   0.92628   0.47046   1.000
    O48     O    0.01750   0.07477   0.50511   1.000
    C49     C    0.23801   0.47322   0.52080   1.000
    O50     O    0.23681   0.57369   0.47046   1.000
    O51     O    0.26733   0.42522   0.50508   1.000
    C52     C    0.43535   0.18086   0.58091   1.000
    O53     O    0.38778   0.18171   0.65967   1.000
    O54     O    0.47515   0.17072   0.56030   1.000
    O55     O    0.45980   0.19678   0.55678   1.000
    O56     O    0.39730   0.22554   0.55678   1.000
    C57     C    0.73909   0.47338   0.52096   1.000
    O58     O    0.73750   0.57379   0.47050   1.000
    O59     O    0.76788   0.42527   0.50513   1.000
    C60     C    0.81463   0.17053   0.46232   1.000
    O61     O    0.79153   0.06797   0.43202   1.000
    O62     O    0.83098   0.20863   0.46803   1.000
    O63     O    0.89347   0.17987   0.46803   1.000
    O64     O    0.73268   0.17715   0.47593   1.000
    O65     O    0.79518   0.20591   0.47592   1.000
    C66     C    0.31462   0.17054   0.46232   1.000
    O67     O    0.33097   0.20864   0.46803   1.000
    O68     O    0.39347   0.17988   0.46803   1.000
    O69     O    0.29151   0.06798   0.43206   1.000
    O70     O    0.23267   0.17716   0.47592   1.000
    O71     O    0.29518   0.20593   0.47593   1.000
    C72     C    0.26172   0.52674   0.02086   1.000
    O73     O    0.26301   0.42629   0.97049   1.000
    O74     O    0.23252   0.57478   0.00510   1.000
    C75     C    0.76200   0.52680   0.02079   1.000
    O76     O    0.76320   0.42633   0.97046   1.000
    O77     O    0.73266   0.57480   0.00507   1.000
    C78     C    0.51199   0.97323   0.02082   1.000
    O79     O    0.51319   0.07370   0.97047   1.000
    O80     O    0.48266   0.92523   0.00508   1.000
    C81     C    0.01194   0.97324   0.02082   1.000
    O82     O    0.01316   0.07370   0.97047   1.000
    O83     O    0.98264   0.92523   0.00509   1.000
    C84     C    0.81467   0.68087   0.08090   1.000
    O85     O    0.86216   0.68171   0.15963   1.000
    O86     O    0.77486   0.67073   0.06030   1.000
    O87     O    0.85271   0.72555   0.05677   1.000
    O88     O    0.79021   0.69678   0.05677   1.000
    C89     C    0.31464   0.68085   0.08091   1.000
    O90     O    0.36221   0.68170   0.15967   1.000
    O91     O    0.35268   0.72554   0.05677   1.000
    O92     O    0.29018   0.69677   0.05677   1.000
    O93     O    0.27483   0.67072   0.06030   1.000
    C94     C    0.93537   0.67055   0.96231   1.000
    O95     O    0.95848   0.56798   0.93206   1.000
    O96     O    0.85652   0.67988   0.96802   1.000
    O97     O    0.91902   0.70865   0.96802   1.000
    O98     O    0.01731   0.67717   0.97590   1.000
    O99     O    0.95481   0.70594   0.97590   1.000
    C100    C    0.43536   0.67055   0.96232   1.000
    O101    O    0.45848   0.56798   0.93207   1.000
    O102    O    0.35651   0.67988   0.96803   1.000
    O103    O    0.41901   0.70865   0.96803   1.000
    O104    O    0.51731   0.67717   0.97592   1.000
    O105    O    0.45481   0.70593   0.97592   1.000
    C106    C    0.06465   0.81916   0.08091   1.000
    O107    O    0.11222   0.81831   0.15967   1.000
    O108    O    0.10269   0.77448   0.05677   1.000
    O109    O    0.04019   0.80324   0.05677   1.000
    O110    O    0.02485   0.82930   0.06030   1.000
    C111    C    0.56467   0.81915   0.08090   1.000
    O112    O    0.60270   0.77448   0.05677   1.000
    O113    O    0.54020   0.80324   0.05677   1.000
    O114    O    0.52486   0.82930   0.06030   1.000
    O115    O    0.61224   0.81831   0.15963   1.000
    C116    C    0.68537   0.82948   0.96232   1.000
    O117    O    0.70849   0.93204   0.93207   1.000
    O118    O    0.70482   0.79410   0.97592   1.000
    O119    O    0.76732   0.82286   0.97592   1.000
    O120    O    0.66902   0.79138   0.96803   1.000
    O121    O    0.60652   0.82015   0.96803   1.000
    C122    C    0.18536   0.82948   0.96232   1.000
    O123    O    0.10652   0.82015   0.96803   1.000
    O124    O    0.16901   0.79139   0.96803   1.000
    O125    O    0.20481   0.79410   0.97592   1.000
    O126    O    0.26731   0.82286   0.97592   1.000
    O127    O    0.20847   0.93205   0.93207   1.000
loop_
    _geom_bond_atom_site_label_1
    _geom_bond_atom_site_label_2
    _geom_bond_distance
    _geom_bond_site_symmetry_2
    _ccdc_geom_bond_type
    C16    O17       2.18675      .   S
    N12    O17       5.40218      .   S
    C16    O18       1.20857      .   S
    Zr6    O18       2.56000      .   S
    C16    O19       0.79085      .   S
    Zr2    O19       2.09564      .   S
    C16    O20       0.81667      .   S
    Zr2    O20       2.06647      .   S
    C21    O22       2.18682      .   S
    N11    O22       5.40250      .   S
    C21    O23       1.20875      .   S
    Zr7    O23       2.56030      .   S
    C21    O24       0.79082      .   S
    Zr3    O24       2.09547      .   S
    C21    O25       0.81660      .   S
    Zr3    O25       2.06635      .   S
    C26    O27       2.35826  1_545   S
    N8     O27       5.61410      .   S
    C26    O28       1.10492      .   S
    Zr7    O28       2.36579      .   S
    C29    O30       2.18681      .   S
    N13    O30       5.40246      .   S
    C29    O31       0.81660      .   S
    Zr6    O31       2.06642  1_455   S
    C29    O32       1.20864      .   S
    Zr3    O32       2.56013      .   S
    C29    O33       0.79085      .   S
    Zr6    O33       2.09549  1_455   S
    C34    O35       2.17092      .   S
    N9     O35       5.37084  1_655   S
    C34    O36       1.24842  1_455   S
    Zr3    O36       2.61878      .   S
    C34    O37       0.82435      .   S
    Zr6    O37       2.06912      .   S
    C34    O38       1.16809      .   S
    Zr2    O38       2.53350      .   S
    C34    O39       0.79090      .   S
    Zr6    O39       2.10768      .   S
    C40    O41       2.17034      .   S
    N8     O41       5.36904      .   S
    C40    O42       0.79093      .   S
    Zr7    O42       2.10760      .   S
    C40    O43       1.16809      .   S
    Zr3    O43       2.53343      .   S
    C40    O44       1.24850      .   S
    Zr2    O44       2.61881      .   S
    C40    O45       0.82432      .   S
    Zr7    O45       2.06913      .   S
    C46    O47       2.35891  1_545   S
    N9     O47       5.61596      .   S
    C46    O48       1.10487  1_655   S
    Zr6    O48       2.36569      .   S
    C49    O50       2.35826      .   S
    N15    O50       5.61413      .   S
    C49    O51       1.10477      .   S
    Zr2    O51       2.36567      .   S
    C52    O53       2.18681      .   S
    N10    O53       5.40241      .   S
    C52    O54       0.81664      .   S
    Zr7    O54       2.06645      .   S
    C52    O55       0.79085      .   S
    Zr7    O55       2.09558      .   S
    C52    O56       1.20862      .   S
    Zr2    O56       2.56004      .   S
    C57    O58       2.35904      .   S
    N14    O58       5.61585      .   S
    C57    O59       1.10464      .   S
    Zr3    O59       2.36534      .   S
    C60    O61       2.17066      .   S
    N14    O61       5.37003  1_565   S
    C60    O62       0.79085      .   S
    Zr3    O62       2.10741      .   S
    C60    O63       1.16805      .   S
    Zr6    O63       2.53327  1_455   S
    C60    O64       1.24853      .   S
    Zr7    O64       2.61884      .   S
    C60    O65       0.82428      .   S
    Zr3    O65       2.06890      .   S
    C66    O67       0.79093      .   S
    Zr2    O67       2.10776      .   S
    C66    O68       1.16811      .   S
    Zr7    O68       2.53348      .   S
    C66    O69       2.17031      .   S
    N15    O69       5.36890  1_565   S
    C66    O70       1.24851      .   S
    Zr6    O70       2.61883      .   S
    C66    O71       0.82439      .   S
    Zr2    O71       2.06921      .   S
    C72    O73       2.35827  1_554   S
    N10    O73       5.61405      .   S
    C72    O74       1.10500      .   S
    Zr0    O74       2.36583  1_556   S
    C75    O76       2.35816  1_554   S
    N13    O76       5.61398      .   S
    C75    O77       1.10481      .   S
    Zr1    O77       2.36572  1_556   S
    C78    O79       2.35833  1_564   S
    N11    O79       5.61410      .   S
    C78    O80       1.10486      .   S
    Zr4    O80       2.36568  1_556   S
    C81    O82       2.35833  1_564   S
    N12    O82       5.61417      .   S
    C81    O83       1.10482  1_455   S
    Zr5    O83       2.36565  1_556   S
    C84    O85       2.18535      .   S
    N9     O85       5.39799      .   S
    C84    O86       0.81673      .   S
    Zr1    O86       2.06667  1_556   S
    C84    O87       1.20860      .   S
    Zr5    O87       2.56005  1_556   S
    C84    O88       0.79092      .   S
    Zr1    O88       2.09582  1_556   S
    C89    O90       2.18677      .   S
    N8     O90       5.40221      .   S
    C89    O91       1.20871      .   S
    Zr4    O91       2.56029  1_556   S
    C89    O92       0.79092      .   S
    Zr0    O92       2.09572  1_556   S
    C89    O93       0.81667      .   S
    Zr0    O93       2.06664  1_556   S
    C94    O95       2.17029      .   S
    N12    O95       5.36900  1_455   S
    C94    O96       1.16810      .   S
    Zr1    O96       2.53352      .   S
    C94    O97       0.79096      .   S
    Zr5    O97       2.10780      .   S
    C94    O98       1.24835  1_655   S
    Zr0    O98       2.61881      .   S
    C94    O99       0.82431      .   S
    Zr5    O99       2.06932      .   S
    C100   O101      2.17034      .   S
    N11    O101      5.36897      .   S
    C100   O102      1.16811      .   S
    Zr0    O102      2.53347      .   S
    C100   O103      0.79093      .   S
    Zr4    O103      2.10766      .   S
    C100   O104      1.24848      .   S
    Zr1    O104      2.61876      .   S
    C100   O105      0.82435      .   S
    Zr4    O105      2.06915      .   S
    C106   O107      2.18672      .   S
    N15    O107      5.40215      .   S
    C106   O108      1.20860      .   S
    Zr0    O108      2.56002  1_556   S
    C106   O109      0.79087      .   S
    Zr5    O109      2.09565  1_656   S
    C106   O110      0.81667      .   S
    Zr5    O110      2.06651  1_656   S
    C111   O112      1.20857      .   S
    Zr1    O112      2.55996  1_556   S
    C111   O113      0.79089      .   S
    Zr4    O113      2.09583  1_556   S
    C111   O114      0.81675      .   S
    Zr4    O114      2.06662  1_556   S
    C111   O115      2.18573      .   S
    N14    O115      5.39911      .   S
    C116   O117      2.17027      .   S
    N13    O117      5.36880  1_545   S
    C116   O118      0.82437      .   S
    Zr1    O118      2.06916      .   S
    C116   O119      1.24849      .   S
    Zr5    O119      2.61879      .   S
    C116   O120      0.79092      .   S
    Zr1    O120      2.10770      .   S
    C116   O121      1.16812      .   S
    Zr4    O121      2.53347      .   S
    C122   O123      1.16804      .   S
    Zr5    O123      2.53326  1_655   S
    C122   O124      0.79092      .   S
    Zr0    O124      2.10766      .   S
    C122   O125      0.82435      .   S
    Zr0    O125      2.06913      .   S
    C122   O126      1.24848      .   S
    Zr4    O126      2.61876      .   S
    C122   O127      2.17027      .   S
    N10    O127      5.36878  1_545   S
