# CIF file generated by openbabel 2.4.90, see http://openbabel.sf.net
data_I
_chemical_name_common ''
_cell_length_a 14.51
_cell_length_b 19.408
_cell_length_c 26.343
_cell_angle_alpha 90
_cell_angle_beta 90.001
_cell_angle_gamma 90.002
_space_group_name_H-M_alt 'P 1'
_space_group_name_Hall 'P 1'
loop_
    _symmetry_equiv_pos_as_xyz
    x,y,z
loop_
    _atom_site_label
    _atom_site_type_symbol
    _atom_site_fract_x
    _atom_site_fract_y
    _atom_site_fract_z
    _atom_site_occupancy
    Zr0     Zr   0.19183   0.69249   0.99860   1.000
    Zr1     Zr   0.69184   0.69248   0.99860   1.000
    Zr2     Zr   0.30816   0.30754   0.49861   1.000
    Zr3     Zr   0.80816   0.30751   0.49860   1.000
    Zr4     Zr   0.44183   0.80754   0.99860   1.000
    Zr5     Zr   0.94185   0.80755   0.99860   1.000
    Zr6     Zr   0.05815   0.19248   0.49860   1.000
    Zr7     Zr   0.55816   0.19248   0.49861   1.000
    Zr8     Zr   0.03841   0.94976   0.05963   1.000
    Zr9     Zr   0.53848   0.94974   0.05962   1.000
    Zr10    Zr   0.46168   0.05023   0.55965   1.000
    Zr11    Zr   0.96196   0.05017   0.55971   1.000
    Zr12    Zr   0.28811   0.55018   0.05969   1.000
    Zr13    Zr   0.78849   0.55028   0.05960   1.000
    Zr14    Zr   0.21152   0.44974   0.55962   1.000
    Zr15    Zr   0.71293   0.44999   0.55988   1.000
    Zr16    Zr   0.17391   0.31902   0.59525   1.000
    Zr17    Zr   0.67397   0.31904   0.59525   1.000
    Zr18    Zr   0.00247   0.99830   0.99889   1.000
    Zr19    Zr   0.50252   0.99829   0.99888   1.000
    Zr20    Zr   0.43592   0.65062   0.95764   1.000
    Zr21    Zr   0.93593   0.65063   0.95764   1.000
    Zr22    Zr   0.32607   0.68099   0.09525   1.000
    Zr23    Zr   0.82610   0.68100   0.09525   1.000
    Zr24    Zr   0.49757   0.00172   0.49890   1.000
    Zr25    Zr   0.99773   0.00169   0.49891   1.000
    Zr26    Zr   0.06406   0.34940   0.45764   1.000
    Zr27    Zr   0.56408   0.34940   0.45765   1.000
    Zr28    Zr   0.42392   0.18099   0.59525   1.000
    Zr29    Zr   0.92394   0.18098   0.59525   1.000
    Zr30    Zr   0.25232   0.50171   0.99891   1.000
    Zr31    Zr   0.75252   0.50174   0.99888   1.000
    Zr32    Zr   0.18592   0.84941   0.95764   1.000
    Zr33    Zr   0.68593   0.84941   0.95764   1.000
    Zr34    Zr   0.07608   0.81903   0.09525   1.000
    Zr35    Zr   0.57610   0.81902   0.09525   1.000
    Zr36    Zr   0.24748   0.49828   0.49888   1.000
    Zr37    Zr   0.74826   0.49838   0.49890   1.000
    Zr38    Zr   0.31407   0.15062   0.45764   1.000
    Zr39    Zr   0.81408   0.15061   0.45764   1.000
    Zr40    Zr   0.36349   0.68594   0.94888   1.000
    Zr41    Zr   0.86350   0.68594   0.94888   1.000
    Zr42    Zr   0.00667   0.67509   0.98040   1.000
    Zr43    Zr   0.50668   0.67509   0.98045   1.000
    Zr44    Zr   0.46483   0.94691   0.98010   1.000
    Zr45    Zr   0.96483   0.94691   0.98010   1.000
    Zr46    Zr   0.22173   0.37133   0.58078   1.000
    Zr47    Zr   0.72188   0.37131   0.58081   1.000
    Zr48    Zr   0.16036   0.26711   0.56668   1.000
    Zr49    Zr   0.66038   0.26714   0.56668   1.000
    Zr50    Zr   0.04204   0.99798   0.04468   1.000
    Zr51    Zr   0.54213   0.99796   0.04467   1.000
    Zr52    Zr   0.13649   0.31409   0.44888   1.000
    Zr53    Zr   0.63650   0.31408   0.44888   1.000
    Zr54    Zr   0.49331   0.32494   0.48045   1.000
    Zr55    Zr   0.99332   0.32493   0.48045   1.000
    Zr56    Zr   0.03517   0.05313   0.48008   1.000
    Zr57    Zr   0.53517   0.05312   0.48009   1.000
    Zr58    Zr   0.27821   0.62869   0.08080   1.000
    Zr59    Zr   0.77827   0.62869   0.08078   1.000
    Zr60    Zr   0.33963   0.73289   0.06668   1.000
    Zr61    Zr   0.83964   0.73291   0.06668   1.000
    Zr62    Zr   0.45809   0.00200   0.54471   1.000
    Zr63    Zr   0.95849   0.00192   0.54479   1.000
    Zr64    Zr   0.11349   0.81409   0.94888   1.000
    Zr65    Zr   0.61350   0.81409   0.94888   1.000
    Zr66    Zr   0.25668   0.82494   0.98045   1.000
    Zr67    Zr   0.75669   0.82494   0.98045   1.000
    Zr68    Zr   0.21481   0.55313   0.98008   1.000
    Zr69    Zr   0.71483   0.55312   0.98010   1.000
    Zr70    Zr   0.47176   0.12869   0.58079   1.000
    Zr71    Zr   0.97180   0.12868   0.58080   1.000
    Zr72    Zr   0.41037   0.23290   0.56668   1.000
    Zr73    Zr   0.91038   0.23288   0.56668   1.000
    Zr74    Zr   0.29163   0.50194   0.04477   1.000
    Zr75    Zr   0.79214   0.50206   0.04460   1.000
    Zr76    Zr   0.38649   0.18593   0.44888   1.000
    Zr77    Zr   0.88650   0.18593   0.44888   1.000
    Zr78    Zr   0.24330   0.17508   0.48045   1.000
    Zr79    Zr   0.74331   0.17507   0.48045   1.000
    Zr80    Zr   0.28517   0.44690   0.48010   1.000
    Zr81    Zr   0.78520   0.44682   0.48000   1.000
    Zr82    Zr   0.02824   0.87133   0.08079   1.000
    Zr83    Zr   0.52826   0.87133   0.08078   1.000
    Zr84    Zr   0.08963   0.76712   0.06668   1.000
    Zr85    Zr   0.58964   0.76711   0.06668   1.000
    Zr86    Zr   0.20787   0.49796   0.54460   1.000
    Zr87    Zr   0.70996   0.49831   0.54507   1.000
    O88     O    0.79031   0.52617   0.05210   1.000
    O89     O    0.77233   0.50190   0.02174   1.000
    O90     O    0.54031   0.97385   0.05214   1.000
    O91     O    0.52232   0.99813   0.02177   1.000
    O92     O    0.04023   0.97387   0.05215   1.000
    O93     O    0.02226   0.99814   0.02178   1.000
    O94     O    0.28987   0.52606   0.05223   1.000
    O95     O    0.27197   0.50183   0.02184   1.000
    O96     O    0.08286   0.79307   0.08096   1.000
    O97     O    0.14073   0.72980   0.03264   1.000
    O98     O    0.58287   0.79307   0.08096   1.000
    O99     O    0.64074   0.72980   0.03264   1.000
    O100    O    0.83287   0.70695   0.08096   1.000
    O101    O    0.89074   0.77023   0.03264   1.000
    O102    O    0.33285   0.70694   0.08096   1.000
    O103    O    0.39073   0.77022   0.03264   1.000
    O104    O    0.55218   0.84518   0.08801   1.000
    O105    O    0.80219   0.65484   0.08801   1.000
    O106    O    0.05216   0.84518   0.08802   1.000
    O107    O    0.30214   0.65484   0.08802   1.000
    O108    O    0.85029   0.16827   0.45326   1.000
    O109    O    0.35028   0.16827   0.45326   1.000
    O110    O    0.10028   0.33174   0.45326   1.000
    O111    O    0.60029   0.33174   0.45327   1.000
    O112    O    0.27869   0.16285   0.46904   1.000
    O113    O    0.77869   0.16284   0.46904   1.000
    O114    O    0.02869   0.33717   0.46904   1.000
    O115    O    0.52870   0.33717   0.46905   1.000
    O116    O    0.76673   0.47260   0.48945   1.000
    O117    O    0.01645   0.02741   0.48949   1.000
    O118    O    0.51637   0.02742   0.48949   1.000
    O119    O    0.26632   0.47259   0.48949   1.000
    O120    O    0.15073   0.18378   0.48952   1.000
    O121    O    0.65073   0.18378   0.48953   1.000
    O122    O    0.90074   0.31622   0.48952   1.000
    O123    O    0.40073   0.31624   0.48953   1.000
    O124    O    0.85927   0.27020   0.53264   1.000
    O125    O    0.10925   0.22979   0.53264   1.000
    O126    O    0.35926   0.27022   0.53264   1.000
    O127    O    0.60927   0.22981   0.53264   1.000
    O128    O    0.22767   0.49812   0.52174   1.000
    O129    O    0.72911   0.49835   0.52199   1.000
    O130    O    0.47783   0.00186   0.52180   1.000
    O131    O    0.97811   0.00181   0.52185   1.000
    O132    O    0.20970   0.47385   0.55211   1.000
    O133    O    0.45988   0.02612   0.55218   1.000
    O134    O    0.96023   0.02605   0.55225   1.000
    O135    O    0.71144   0.47415   0.55248   1.000
    O136    O    0.41714   0.20694   0.58096   1.000
    O137    O    0.16713   0.29306   0.58096   1.000
    O138    O    0.91716   0.20693   0.58096   1.000
    O139    O    0.66717   0.29309   0.58096   1.000
    O140    O    0.19782   0.34517   0.58801   1.000
    O141    O    0.44784   0.15484   0.58802   1.000
    O142    O    0.94787   0.15483   0.58802   1.000
    O143    O    0.69793   0.34517   0.58803   1.000
    O144    O    0.39970   0.66828   0.95326   1.000
    O145    O    0.89972   0.66828   0.95326   1.000
    O146    O    0.14971   0.83175   0.95326   1.000
    O147    O    0.64971   0.83175   0.95326   1.000
    O148    O    0.47130   0.66286   0.96904   1.000
    O149    O    0.97130   0.66286   0.96902   1.000
    O150    O    0.22130   0.83718   0.96904   1.000
    O151    O    0.72131   0.83717   0.96904   1.000
    O152    O    0.23356   0.52742   0.98949   1.000
    O153    O    0.73368   0.52743   0.98949   1.000
    O154    O    0.98365   0.97260   0.98949   1.000
    O155    O    0.48367   0.97260   0.98949   1.000
    O156    O    0.09925   0.68379   0.98950   1.000
    O157    O    0.34926   0.81624   0.98952   1.000
    O158    O    0.84927   0.81624   0.98952   1.000
    O159    O    0.59926   0.68379   0.98952   1.000
    O160    O    0.27766   0.68921   0.97374   1.000
    O161    O    0.40266   0.74674   0.97374   1.000
    O162    O    0.77767   0.68921   0.97374   1.000
    O163    O    0.90267   0.74674   0.97374   1.000
    O164    O    0.97426   0.74132   0.98950   1.000
    O165    O    0.47426   0.74132   0.98952   1.000
    O166    O    0.45333   0.87723   0.98935   1.000
    O167    O    0.95334   0.87723   0.98935   1.000
    O168    O    0.26495   0.33943   0.53969   1.000
    O169    O    0.76502   0.33941   0.53970   1.000
    O170    O    0.23426   0.28732   0.53264   1.000
    O171    O    0.73427   0.28732   0.53264   1.000
    O172    O    0.22232   0.31081   0.47374   1.000
    O173    O    0.09732   0.25328   0.47374   1.000
    O174    O    0.72233   0.31079   0.47374   1.000
    O175    O    0.59733   0.25328   0.47374   1.000
    O176    O    0.52573   0.25871   0.48953   1.000
    O177    O    0.02573   0.25871   0.48952   1.000
    O178    O    0.04666   0.12280   0.48934   1.000
    O179    O    0.54667   0.12280   0.48935   1.000
    O180    O    0.23502   0.66059   0.03970   1.000
    O181    O    0.73505   0.66059   0.03969   1.000
    O182    O    0.26573   0.71269   0.03264   1.000
    O183    O    0.76574   0.71270   0.03264   1.000
    O184    O    0.15266   0.75329   0.97374   1.000
    O185    O    0.02767   0.81082   0.97374   1.000
    O186    O    0.65267   0.75329   0.97374   1.000
    O187    O    0.52767   0.81082   0.97374   1.000
    O188    O    0.22425   0.75872   0.98952   1.000
    O189    O    0.72426   0.75871   0.98952   1.000
    O190    O    0.20332   0.62281   0.98934   1.000
    O191    O    0.70333   0.62280   0.98935   1.000
    O192    O    0.51496   0.16059   0.53970   1.000
    O193    O    0.01498   0.16058   0.53970   1.000
    O194    O    0.48426   0.21269   0.53264   1.000
    O195    O    0.98427   0.21268   0.53264   1.000
    O196    O    0.34733   0.24673   0.47374   1.000
    O197    O    0.47233   0.18921   0.47374   1.000
    O198    O    0.84733   0.24672   0.47374   1.000
    O199    O    0.97232   0.18920   0.47374   1.000
    O200    O    0.27573   0.24131   0.48953   1.000
    O201    O    0.77573   0.24129   0.48952   1.000
    O202    O    0.29666   0.37722   0.48936   1.000
    O203    O    0.79668   0.37716   0.48930   1.000
    O204    O    0.98504   0.83944   0.03969   1.000
    O205    O    0.48505   0.83944   0.03969   1.000
    O206    O    0.01574   0.78733   0.03264   1.000
    O207    O    0.51574   0.78733   0.03264   1.000
    N208    N    0.47582   0.68336   0.35496   1.000
    O209    O    0.48565   0.82585   0.42012   1.000
    O210    O    0.40978   0.68255   0.23844   1.000
    O211    O    0.51842   0.53461   0.40181   1.000
    N212    N    0.97551   0.68336   0.35479   1.000
    O213    O    0.90965   0.68255   0.23835   1.000
    O214    O    0.98556   0.82584   0.42004   1.000
    O215    O    0.01825   0.53461   0.40172   1.000
    N216    N    0.27418   0.18336   0.85497   1.000
    O217    O    0.26431   0.32584   0.92013   1.000
    O218    O    0.34021   0.18255   0.73844   1.000
    O219    O    0.23158   0.03461   0.90181   1.000
    N220    N    0.52419   0.31666   0.85497   1.000
    O221    O    0.59023   0.31747   0.73844   1.000
    O222    O    0.48159   0.46542   0.90181   1.000
    O223    O    0.51439   0.17417   0.92012   1.000
    N224    N    0.02419   0.31666   0.85496   1.000
    O225    O    0.09021   0.31747   0.73843   1.000
    O226    O    0.01437   0.17417   0.92012   1.000
    O227    O    0.98160   0.46542   0.90180   1.000
    N228    N    0.77420   0.18336   0.85497   1.000
    O229    O    0.76440   0.32586   0.92012   1.000
    O230    O    0.84023   0.18255   0.73844   1.000
    O231    O    0.73160   0.03461   0.90181   1.000
    N232    N    0.72584   0.81665   0.35479   1.000
    O233    O    0.65981   0.81746   0.23835   1.000
    O234    O    0.73592   0.67419   0.42004   1.000
    O235    O    0.76843   0.96540   0.40172   1.000
    N236    N    0.22580   0.81666   0.35496   1.000
    O237    O    0.15978   0.81747   0.23844   1.000
    O238    O    0.26840   0.96541   0.40181   1.000
    O239    O    0.23560   0.67416   0.42012   1.000
loop_
    _geom_bond_atom_site_label_1
    _geom_bond_atom_site_label_2
    _geom_bond_distance
    _geom_bond_site_symmetry_2
    _ccdc_geom_bond_type
    Zr75   O88       0.50864      .   S
    Zr13   O88       0.50864      .   S
    Zr75   O89       0.66727      .   S
    Zr31   O89       0.66727  1_556   S
    Zr51   O90       0.50839      .   S
    Zr9    O90       0.50839      .   S
    Zr51   O91       0.66810      .   S
    Zr19   O91       0.66810  1_556   S
    Zr50   O92       0.50839      .   S
    Zr8    O92       0.50839      .   S
    Zr50   O93       0.66796      .   S
    Zr18   O93       0.66796  1_556   S
    Zr74   O94       0.50834      .   S
    Zr12   O94       0.50834      .   S
    Zr74   O95       0.66800      .   S
    Zr30   O95       0.66800  1_556   S
    Zr84   O96       0.63641      .   S
    Zr34   O96       0.63641      .   S
    Zr84   O97       1.37054      .   S
    Zr0    O97       1.37054  1_556   S
    Zr85   O98       0.63642      .   S
    Zr35   O98       0.63642      .   S
    Zr85   O99       1.37051      .   S
    Zr1    O99       1.37051  1_556   S
    Zr61   O100      0.63642      .   S
    Zr23   O100      0.63642      .   S
    Zr61   O101      1.37057      .   S
    Zr5    O101      1.37057  1_556   S
    Zr60   O102      0.63638      .   S
    Zr22   O102      0.63638      .   S
    Zr60   O103      1.37066      .   S
    Zr4    O103      1.37066  1_556   S
    Zr83   O104      0.64375      .   S
    Zr35   O104      0.64375      .   S
    Zr59   O105      0.64375      .   S
    Zr23   O105      0.64375      .   S
    Zr82   O106      0.64372      .   S
    Zr34   O106      0.64372      .   S
    Zr58   O107      0.64371      .   S
    Zr22   O107      0.64371      .   S
    Zr77   O108      0.63786      .   S
    Zr39   O108      0.63786      .   S
    Zr76   O109      0.63785      .   S
    Zr38   O109      0.63785      .   S
    Zr52   O110      0.63786      .   S
    Zr26   O110      0.63786      .   S
    Zr53   O111      0.63785      .   S
    Zr27   O111      0.63785      .   S
    Zr38   O112      0.64047      .   S
    Zr78   O112      0.64047      .   S
    Zr39   O113      0.64050      .   S
    Zr79   O113      0.64050      .   S
    Zr26   O114      0.64034      .   S
    Zr55   O114      0.64034  1_655   S
    Zr27   O115      0.64045      .   S
    Zr54   O115      0.64045      .   S
    Zr81   O116      0.61976      .   S
    Zr37   O116      0.61976      .   S
    Zr56   O117      0.62006      .   S
    Zr25   O117      0.62006  1_655   S
    Zr57   O118      0.62020      .   S
    Zr24   O118      0.62020      .   S
    Zr80   O119      0.62015      .   S
    Zr36   O119      0.62015      .   S
    Zr78   O120      1.37484      .   S
    Zr6    O120      1.37484      .   S
    Zr79   O121      1.37482      .   S
    Zr7    O121      1.37482      .   S
    Zr55   O122      1.37487      .   S
    Zr3    O122      1.37487      .   S
    Zr54   O123      1.37482      .   S
    Zr2    O123      1.37482      .   S
    Zr3    O124      1.37059      .   S
    Zr73   O124      1.37059      .   S
    Zr6    O125      1.37055      .   S
    Zr48   O125      1.37055      .   S
    Zr2    O126      1.37053      .   S
    Zr72   O126      1.37053      .   S
    Zr7    O127      1.37061      .   S
    Zr49   O127      1.37061      .   S
    Zr36   O128      0.66724      .   S
    Zr86   O128      0.66724      .   S
    Zr37   O129      0.66860      .   S
    Zr87   O129      0.66860      .   S
    Zr24   O130      0.66794      .   S
    Zr62   O130      0.66794      .   S
    Zr25   O131      0.66801      .   S
    Zr63   O131      0.66801      .   S
    Zr86   O132      0.50875      .   S
    Zr14   O132      0.50875      .   S
    Zr62   O133      0.50837      .   S
    Zr10   O133      0.50837      .   S
    Zr63   O134      0.50838      .   S
    Zr11   O134      0.50838      .   S
    Zr87   O135      0.50832      .   S
    Zr15   O135      0.50832      .   S
    Zr72   O136      0.63640      .   S
    Zr28   O136      0.63640      .   S
    Zr48   O137      0.63640      .   S
    Zr16   O137      0.63640      .   S
    Zr73   O138      0.63637      .   S
    Zr29   O138      0.63637      .   S
    Zr49   O139      0.63637      .   S
    Zr17   O139      0.63637      .   S
    Zr46   O140      0.64375      .   S
    Zr16   O140      0.64375      .   S
    Zr70   O141      0.64373      .   S
    Zr28   O141      0.64373      .   S
    Zr71   O142      0.64371      .   S
    Zr29   O142      0.64371      .   S
    Zr47   O143      0.64366      .   S
    Zr17   O143      0.64366      .   S
    Zr40   O144      0.63785      .   S
    Zr20   O144      0.63785      .   S
    Zr41   O145      0.63785      .   S
    Zr21   O145      0.63785      .   S
    Zr64   O146      0.63786      .   S
    Zr32   O146      0.63786      .   S
    Zr65   O147      0.63786      .   S
    Zr33   O147      0.63786      .   S
    Zr20   O148      0.64046      .   S
    Zr43   O148      0.64046      .   S
    Zr21   O149      0.64000      .   S
    Zr42   O149      0.64000  1_455   S
    Zr32   O150      0.64044      .   S
    Zr66   O150      0.64044      .   S
    Zr33   O151      0.64045      .   S
    Zr67   O151      0.64045      .   S
    Zr68   O152      0.62019      .   S
    Zr30   O152      0.62019      .   S
    Zr69   O153      0.62014      .   S
    Zr31   O153      0.62014      .   S
    Zr45   O154      0.62010      .   S
    Zr18   O154      0.62010  1_455   S
    Zr44   O155      0.62014      .   S
    Zr19   O155      0.62014      .   S
    Zr42   O156      1.37494      .   S
    Zr0    O156      1.37494      .   S
    Zr66   O157      1.37480      .   S
    Zr4    O157      1.37480      .   S
    Zr67   O158      1.37481      .   S
    Zr5    O158      1.37481      .   S
    Zr43   O159      1.37480      .   S
    Zr1    O159      1.37480      .   S
    Zr40   O160      1.40856      .   S
    Zr0    O160      1.40856      .   S
    Zr40   O161      1.46438      .   S
    Zr4    O161      1.46438      .   S
    Zr41   O162      1.40858      .   S
    Zr1    O162      1.40858      .   S
    Zr41   O163      1.46442      .   S
    Zr5    O163      1.46442      .   S
    Zr42   O164      1.38955  1_455   S
    Zr5    O164      1.38955      .   S
    Zr43   O165      1.38949      .   S
    Zr4    O165      1.38949      .   S
    Zr44   O166      1.38423      .   S
    Zr4    O166      1.38423      .   S
    Zr45   O167      1.38421      .   S
    Zr5    O167      1.38421      .   S
    Zr46   O168      1.39563      .   S
    Zr2    O168      1.39563      .   S
    Zr47   O169      1.39559      .   S
    Zr3    O169      1.39559      .   S
    Zr48   O170      1.45174      .   S
    Zr2    O170      1.45174      .   S
    Zr49   O171      1.45161      .   S
    Zr3    O171      1.45161      .   S
    Zr52   O172      1.40862      .   S
    Zr2    O172      1.40862      .   S
    Zr52   O173      1.46441      .   S
    Zr6    O173      1.46441      .   S
    Zr53   O174      1.40856      .   S
    Zr3    O174      1.40856      .   S
    Zr53   O175      1.46432      .   S
    Zr7    O175      1.46432      .   S
    Zr54   O176      1.38951      .   S
    Zr7    O176      1.38951      .   S
    Zr55   O177      1.38941  1_655   S
    Zr6    O177      1.38941      .   S
    Zr56   O178      1.38415      .   S
    Zr6    O178      1.38415      .   S
    Zr57   O179      1.38428      .   S
    Zr7    O179      1.38428      .   S
    Zr58   O180      1.39580      .   S
    Zr0    O180      1.39580  1_556   S
    Zr59   O181      1.39575      .   S
    Zr1    O181      1.39575  1_556   S
    Zr60   O182      1.45175      .   S
    Zr0    O182      1.45175  1_556   S
    Zr61   O183      1.45185      .   S
    Zr1    O183      1.45185  1_556   S
    Zr64   O184      1.46440      .   S
    Zr0    O184      1.46440      .   S
    Zr64   O185      1.40843      .   S
    Zr5    O185      1.40843  1_655   S
    Zr65   O186      1.46443      .   S
    Zr1    O186      1.46443      .   S
    Zr65   O187      1.40856      .   S
    Zr4    O187      1.40856      .   S
    Zr66   O188      1.38947      .   S
    Zr0    O188      1.38947      .   S
    Zr67   O189      1.38948      .   S
    Zr1    O189      1.38948      .   S
    Zr68   O190      1.38420      .   S
    Zr0    O190      1.38420      .   S
    Zr69   O191      1.38422      .   S
    Zr1    O191      1.38422      .   S
    Zr70   O192      1.39565      .   S
    Zr7    O192      1.39565      .   S
    Zr71   O193      1.39566  1_655   S
    Zr6    O193      1.39566      .   S
    Zr72   O194      1.45169      .   S
    Zr7    O194      1.45169      .   S
    Zr73   O195      1.45160      .   S
    Zr6    O195      1.45160  1_455   S
    Zr76   O196      1.46447      .   S
    Zr2    O196      1.46447      .   S
    Zr76   O197      1.40859      .   S
    Zr7    O197      1.40859      .   S
    Zr77   O198      1.46423      .   S
    Zr3    O198      1.46423      .   S
    Zr77   O199      1.40843      .   S
    Zr6    O199      1.40843  1_455   S
    Zr78   O200      1.38950      .   S
    Zr2    O200      1.38950      .   S
    Zr79   O201      1.38934      .   S
    Zr3    O201      1.38934      .   S
    Zr80   O202      1.38424      .   S
    Zr2    O202      1.38424      .   S
    Zr81   O203      1.38397      .   S
    Zr3    O203      1.38397      .   S
    Zr82   O204      1.39567  1_455   S
    Zr5    O204      1.39567  1_556   S
    Zr83   O205      1.39568      .   S
    Zr4    O205      1.39568  1_556   S
    Zr84   O206      1.45174      .   S
    Zr5    O206      1.45174  1_656   S
    Zr85   O207      1.45189      .   S
    Zr4    O207      1.45189  1_556   S
    N208   O209      3.25793      .   S
    Zr24   O209      3.99829  1_545   S
    N208   O210      3.21568      .   S
    Zr22   O210      3.96289      .   S
    N208   O211      3.20004      .   S
    Zr27   O211      3.93994      .   S
    N212   O213      3.21288      .   S
    Zr23   O213      3.95992      .   S
    N212   O214      3.25915      .   S
    Zr25   O214      3.99946  1_545   S
    N212   O215      3.20126  1_655   S
    Zr26   O215      3.94109      .   S
    N216   O217      3.25787      .   S
    Zr30   O217      3.99837      .   S
    N216   O218      3.21583      .   S
    Zr28   O218      3.96291      .   S
    N216   O219      3.19984      .   S
    Zr32   O219      3.93975  1_565   S
    N220   O221      3.21591      .   S
    Zr17   O221      3.96305      .   S
    N220   O222      3.19996      .   S
    Zr20   O222      3.93989      .   S
    N220   O223      3.25787      .   S
    Zr19   O223      3.99821  1_565   S
    N224   O225      3.21566      .   S
    Zr16   O225      3.96273      .   S
    N224   O226      3.25793      .   S
    Zr18   O226      3.99832  1_565   S
    N224   O227      3.20004  1_455   S
    Zr21   O227      3.93996      .   S
    N228   O229      3.25791      .   S
    Zr31   O229      3.99835      .   S
    N228   O230      3.21588      .   S
    Zr29   O230      3.96298      .   S
    N228   O231      3.19986      .   S
    Zr33   O231      3.93977  1_565   S
    N232   O233      3.21361      .   S
    Zr35   O233      3.96066      .   S
    N232   O234      3.25888      .   S
    Zr37   O234      3.99890      .   S
    N232   O235      3.20070      .   S
    Zr39   O235      3.94055  1_545   S
    N236   O237      3.21566      .   S
    Zr34   O237      3.96272      .   S
    N236   O238      3.19992      .   S
    Zr38   O238      3.93984  1_545   S
    N236   O239      3.25796      .   S
    Zr36   O239      3.99839      .   S
