# CIF file generated by openbabel 2.4.90, see http://openbabel.sf.net
data_I
_chemical_name_common ''
_cell_length_a 14.51
_cell_length_b 19.408
_cell_length_c 26.343
_cell_angle_alpha 90
_cell_angle_beta 90.001
_cell_angle_gamma 90.002
_space_group_name_H-M_alt 'P 1'
_space_group_name_Hall 'P 1'
loop_
    _symmetry_equiv_pos_as_xyz
    x,y,z
loop_
    _atom_site_label
    _atom_site_type_symbol
    _atom_site_fract_x
    _atom_site_fract_y
    _atom_site_fract_z
    _atom_site_occupancy
    C0      C    0.19183   0.69249   0.99860   1.000
    C1      C    0.69184   0.69248   0.99860   1.000
    C2      C    0.30816   0.30754   0.49861   1.000
    C3      C    0.80816   0.30751   0.49860   1.000
    C4      C    0.44183   0.80754   0.99860   1.000
    C5      C    0.94185   0.80755   0.99860   1.000
    C6      C    0.05815   0.19248   0.49860   1.000
    C7      C    0.55816   0.19248   0.49861   1.000
    C8      C    0.06169   0.12466   0.03384   1.000
    C9      C    0.56172   0.12465   0.03384   1.000
    C10     C    0.06868   0.23367   0.98467   1.000
    C11     C    0.56869   0.23367   0.98467   1.000
    C12     C    0.47735   0.31816   0.94699   1.000
    C13     C    0.97737   0.31817   0.94699   1.000
    C14     C    0.13246   0.41656   0.75519   1.000
    C15     C    0.63247   0.41656   0.75519   1.000
    C16     C    0.03503   0.20882   0.73267   1.000
    C17     C    0.53504   0.20882   0.73266   1.000
    C18     C    0.01585   0.42021   0.80423   1.000
    C19     C    0.51585   0.42021   0.80423   1.000
    C20     C    0.18370   0.42055   0.66549   1.000
    C21     C    0.68373   0.42056   0.66550   1.000
    C22     C    0.07057   0.20304   0.81722   1.000
    C23     C    0.57058   0.20304   0.81722   1.000
    C24     C    0.09030   0.21295   0.64393   1.000
    C25     C    0.59032   0.21297   0.64390   1.000
    C26     C    0.03841   0.94976   0.05963   1.000
    C27     C    0.53848   0.94974   0.05962   1.000
    C28     C    0.45994   0.12860   0.85382   1.000
    C29     C    0.95996   0.12860   0.85382   1.000
    C30     C    0.39294   0.47946   0.83601   1.000
    C31     C    0.89296   0.47946   0.83601   1.000
    C32     C    0.04227   0.42492   0.97144   1.000
    C33     C    0.54229   0.42492   0.97140   1.000
    C34     C    0.36497   0.59665   0.87129   1.000
    C35     C    0.86499   0.59665   0.87128   1.000
    C36     C    0.45149   0.01993   0.90370   1.000
    C37     C    0.95149   0.01993   0.90374   1.000
    C38     C    0.01885   0.54305   0.00480   1.000
    C39     C    0.51885   0.54305   0.00481   1.000
    C40     C    0.43834   0.87536   0.53380   1.000
    C41     C    0.93842   0.87535   0.53385   1.000
    C42     C    0.43130   0.76635   0.48467   1.000
    C43     C    0.93131   0.76636   0.48467   1.000
    C44     C    0.02262   0.68186   0.44000   1.000
    C45     C    0.52265   0.68187   0.44700   1.000
    C46     C    0.36754   0.58346   0.25500   1.000
    C47     C    0.86754   0.58347   0.25519   1.000
    C48     C    0.46496   0.79120   0.23267   1.000
    C49     C    0.96497   0.79121   0.23267   1.000
    C50     C    0.48415   0.57981   0.30424   1.000
    C51     C    0.98415   0.57982   0.30423   1.000
    C52     C    0.31628   0.57946   0.16550   1.000
    C53     C    0.81630   0.57947   0.16549   1.000
    C54     C    0.42942   0.79698   0.31722   1.000
    C55     C    0.92942   0.79698   0.31722   1.000
    C56     C    0.40969   0.78705   0.14393   1.000
    C57     C    0.90970   0.78706   0.14393   1.000
    C58     C    0.46168   0.05023   0.55965   1.000
    C59     C    0.96196   0.05017   0.55971   1.000
    C60     C    0.04002   0.87142   0.35381   1.000
    C61     C    0.54004   0.87142   0.35382   1.000
    C62     C    0.10703   0.52057   0.33601   1.000
    C63     C    0.60706   0.52057   0.33602   1.000
    C64     C    0.45773   0.57511   0.47140   1.000
    C65     C    0.95774   0.57511   0.47145   1.000
    C66     C    0.13500   0.40337   0.37120   1.000
    C67     C    0.63504   0.40338   0.37130   1.000
    C68     C    0.04855   0.98008   0.40374   1.000
    C69     C    0.54853   0.98009   0.40375   1.000
    C70     C    0.48117   0.45697   0.50482   1.000
    C71     C    0.98118   0.45697   0.50481   1.000
    C72     C    0.31161   0.37535   0.03385   1.000
    C73     C    0.81173   0.37536   0.03384   1.000
    C74     C    0.31869   0.26636   0.98460   1.000
    C75     C    0.81870   0.26635   0.98467   1.000
    C76     C    0.22736   0.18186   0.94699   1.000
    C77     C    0.72737   0.18186   0.94699   1.000
    C78     C    0.38246   0.08347   0.75519   1.000
    C79     C    0.88247   0.08346   0.75520   1.000
    C80     C    0.28503   0.29120   0.73266   1.000
    C81     C    0.78505   0.29120   0.73266   1.000
    C82     C    0.26586   0.07981   0.80423   1.000
    C83     C    0.76587   0.07981   0.80423   1.000
    C84     C    0.43371   0.07947   0.66549   1.000
    C85     C    0.93373   0.07946   0.66550   1.000
    C86     C    0.32057   0.29698   0.81722   1.000
    C87     C    0.82058   0.29698   0.81722   1.000
    C88     C    0.34031   0.28705   0.64390   1.000
    C89     C    0.84032   0.28705   0.64392   1.000
    C90     C    0.28811   0.55018   0.05969   1.000
    C91     C    0.78849   0.55028   0.05960   1.000
    C92     C    0.20996   0.37142   0.85380   1.000
    C93     C    0.70994   0.37142   0.85382   1.000
    C94     C    0.14294   0.02056   0.83601   1.000
    C95     C    0.64296   0.02056   0.83601   1.000
    C96     C    0.29229   0.07510   0.97144   1.000
    C97     C    0.79231   0.07510   0.97144   1.000
    C98     C    0.11497   0.90338   0.87129   1.000
    C99     C    0.61498   0.90338   0.87129   1.000
    C100    C    0.20143   0.48008   0.90374   1.000
    C101    C    0.70149   0.48009   0.90374   1.000
    C102    C    0.26886   0.95697   0.00480   1.000
    C103    C    0.76887   0.95696   0.00480   1.000
    C104    C    0.18828   0.62466   0.53384   1.000
    C105    C    0.68862   0.62466   0.53387   1.000
    C106    C    0.18130   0.73367   0.48467   1.000
    C107    C    0.68129   0.73362   0.48466   1.000
    C108    C    0.27263   0.81816   0.44700   1.000
    C109    C    0.77263   0.81815   0.44000   1.000
    C110    C    0.11752   0.91655   0.25519   1.000
    C111    C    0.61753   0.91656   0.25519   1.000
    C112    C    0.21496   0.70882   0.23267   1.000
    C113    C    0.71497   0.70882   0.23267   1.000
    C114    C    0.23413   0.92021   0.30423   1.000
    C115    C    0.73415   0.92021   0.30423   1.000
    C116    C    0.06628   0.92055   0.16549   1.000
    C117    C    0.56629   0.92055   0.16549   1.000
    C118    C    0.17942   0.70304   0.31722   1.000
    C119    C    0.67941   0.70304   0.31721   1.000
    C120    C    0.15969   0.71296   0.14393   1.000
    C121    C    0.65970   0.71296   0.14393   1.000
    C122    C    0.21152   0.44974   0.55962   1.000
    C123    C    0.71293   0.44999   0.55988   1.000
    C124    C    0.29006   0.62860   0.35382   1.000
    C125    C    0.78998   0.62860   0.35378   1.000
    C126    C    0.35704   0.97946   0.33602   1.000
    C127    C    0.85705   0.97945   0.33602   1.000
    C128    C    0.20771   0.92492   0.47145   1.000
    C129    C    0.70771   0.92491   0.47145   1.000
    C130    C    0.38501   0.09665   0.37129   1.000
    C131    C    0.88503   0.09664   0.37129   1.000
    C132    C    0.29852   0.51993   0.40375   1.000
    C133    C    0.79867   0.51995   0.40372   1.000
    C134    C    0.23115   0.04305   0.50481   1.000
    C135    C    0.73116   0.04304   0.50481   1.000
    C136    C    0.04676   0.31152   0.80411   1.000
    C137    C    0.54677   0.31153   0.80411   1.000
    C138    C    0.03880   0.12591   0.99447   1.000
    C139    C    0.53882   0.12591   0.99446   1.000
    C140    C    0.04224   0.18698   0.96680   1.000
    C141    C    0.54226   0.18698   0.96680   1.000
    C142    C    0.07894   0.31246   0.75079   1.000
    C143    C    0.57895   0.31247   0.75079   1.000
    C144    C    0.13855   0.31752   0.64857   1.000
    C145    C    0.63858   0.31754   0.64857   1.000
    C146    C    0.99785   0.31637   0.90720   1.000
    C147    C    0.49786   0.31637   0.90728   1.000
    C148    C    0.12100   0.37206   0.73072   1.000
    C149    C    0.62101   0.37206   0.73073   1.000
    C150    C    0.06864   0.25524   0.71862   1.000
    C151    C    0.56866   0.25525   0.71861   1.000
    C152    C    0.01791   0.37324   0.82683   1.000
    C153    C    0.51792   0.37325   0.82683   1.000
    C154    C    0.49474   0.37687   0.87832   1.000
    C155    C    0.99476   0.37687   0.87832   1.000
    C156    C    0.15013   0.37466   0.68000   1.000
    C157    C    0.65015   0.37467   0.68050   1.000
    C158    C    0.04653   0.25133   0.83365   1.000
    C159    C    0.54654   0.25133   0.83365   1.000
    C160    C    0.02077   0.25300   0.88509   1.000
    C161    C    0.52078   0.25300   0.88509   1.000
    C162    C    0.01599   0.18882   0.91532   1.000
    C163    C    0.51600   0.18882   0.91532   1.000
    C164    C    0.09803   0.25776   0.66839   1.000
    C165    C    0.59804   0.25778   0.66839   1.000
    C166    C    0.17391   0.31902   0.59525   1.000
    C167    C    0.67397   0.31904   0.59525   1.000
    C168    C    0.00247   0.99830   0.99889   1.000
    C169    C    0.50252   0.99829   0.99888   1.000
    C170    C    0.00664   0.06506   0.97166   1.000
    C171    C    0.50667   0.06506   0.97166   1.000
    C172    C    0.47121   0.44426   0.90082   1.000
    C173    C    0.97122   0.44426   0.90081   1.000
    C174    C    0.48346   0.12766   0.89307   1.000
    C175    C    0.98347   0.12766   0.89307   1.000
    C176    C    0.42080   0.49338   0.87306   1.000
    C177    C    0.92083   0.49339   0.87306   1.000
    C178    C    0.00300   0.46226   0.94939   1.000
    C179    C    0.50300   0.46226   0.94939   1.000
    C180    C    0.40482   0.55885   0.89261   1.000
    C181    C    0.90484   0.55885   0.89260   1.000
    C182    C    0.47798   0.06698   0.92083   1.000
    C183    C    0.97798   0.06698   0.92083   1.000
    C184    C    0.99027   0.52855   0.96811   1.000
    C185    C    0.49027   0.52855   0.96810   1.000
    C186    C    0.44205   0.57772   0.93966   1.000
    C187    C    0.94207   0.57772   0.93966   1.000
    C188    C    0.43592   0.65062   0.95764   1.000
    C189    C    0.93593   0.65063   0.95764   1.000
    C190    C    0.45323   0.68849   0.30410   1.000
    C191    C    0.95323   0.68850   0.30411   1.000
    C192    C    0.46122   0.87411   0.49447   1.000
    C193    C    0.96128   0.87411   0.49447   1.000
    C194    C    0.45775   0.81304   0.46680   1.000
    C195    C    0.95777   0.81304   0.46680   1.000
    C196    C    0.42105   0.68755   0.25079   1.000
    C197    C    0.92106   0.68756   0.25079   1.000
    C198    C    0.36144   0.68249   0.14858   1.000
    C199    C    0.86145   0.68250   0.14857   1.000
    C200    C    0.50214   0.68366   0.40728   1.000
    C201    C    0.00000   0.68366   0.40728   1.000
    C202    C    0.37900   0.62796   0.23073   1.000
    C203    C    0.87900   0.62796   0.23070   1.000
    C204    C    0.43135   0.74477   0.21862   1.000
    C205    C    0.93136   0.74478   0.21862   1.000
    C206    C    0.48208   0.62677   0.32684   1.000
    C207    C    0.98209   0.62678   0.32683   1.000
    C208    C    0.00524   0.62316   0.37832   1.000
    C209    C    0.50526   0.62316   0.37833   1.000
    C210    C    0.34986   0.62535   0.18050   1.000
    C211    C    0.84987   0.62536   0.18049   1.000
    C212    C    0.45346   0.74869   0.33366   1.000
    C213    C    0.95346   0.74869   0.33365   1.000
    C214    C    0.47921   0.74702   0.38510   1.000
    C215    C    0.97922   0.74702   0.38509   1.000
    C216    C    0.48400   0.81121   0.41532   1.000
    C217    C    0.98401   0.81121   0.41532   1.000
    C218    C    0.40197   0.74224   0.16800   1.000
    C219    C    0.90198   0.74225   0.16839   1.000
    C220    C    0.32607   0.68099   0.09525   1.000
    C221    C    0.82610   0.68100   0.09525   1.000
    C222    C    0.49757   0.00172   0.49890   1.000
    C223    C    0.99773   0.00169   0.49891   1.000
    C224    C    0.49339   0.93496   0.47167   1.000
    C225    C    0.99347   0.93495   0.47167   1.000
    C226    C    0.02877   0.55576   0.40082   1.000
    C227    C    0.52881   0.55577   0.40083   1.000
    C228    C    0.01653   0.87236   0.39306   1.000
    C229    C    0.51654   0.87237   0.39307   1.000
    C230    C    0.07917   0.50664   0.37306   1.000
    C231    C    0.57921   0.50665   0.37308   1.000
    C232    C    0.49702   0.53778   0.44941   1.000
    C233    C    0.99701   0.53777   0.44939   1.000
    C234    C    0.09515   0.44118   0.39260   1.000
    C235    C    0.59520   0.44118   0.39262   1.000
    C236    C    0.02206   0.93303   0.42083   1.000
    C237    C    0.52204   0.93304   0.42083   1.000
    C238    C    0.50976   0.47148   0.46813   1.000
    C239    C    0.00000   0.47147   0.46811   1.000
    C240    C    0.05793   0.42230   0.43966   1.000
    C241    C    0.55798   0.42231   0.43968   1.000
    C242    C    0.06406   0.34940   0.45764   1.000
    C243    C    0.56408   0.34940   0.45765   1.000
    C244    C    0.29677   0.18850   0.80411   1.000
    C245    C    0.79678   0.18850   0.80411   1.000
    C246    C    0.28873   0.37411   0.99447   1.000
    C247    C    0.78882   0.37412   0.99446   1.000
    C248    C    0.29223   0.31305   0.96680   1.000
    C249    C    0.79226   0.31305   0.96680   1.000
    C250    C    0.32895   0.18755   0.75079   1.000
    C251    C    0.82896   0.18755   0.75079   1.000
    C252    C    0.38856   0.18249   0.64857   1.000
    C253    C    0.88857   0.18248   0.64857   1.000
    C254    C    0.24787   0.18365   0.90727   1.000
    C255    C    0.74787   0.18365   0.90728   1.000
    C256    C    0.37100   0.12796   0.73070   1.000
    C257    C    0.87101   0.12796   0.73073   1.000
    C258    C    0.31865   0.24477   0.71861   1.000
    C259    C    0.81866   0.24477   0.71861   1.000
    C260    C    0.26792   0.12678   0.82683   1.000
    C261    C    0.76793   0.12678   0.82683   1.000
    C262    C    0.24475   0.12316   0.87832   1.000
    C263    C    0.74475   0.12316   0.87832   1.000
    C264    C    0.40014   0.12536   0.68050   1.000
    C265    C    0.90015   0.12535   0.68050   1.000
    C266    C    0.29654   0.24869   0.83365   1.000
    C267    C    0.79654   0.24869   0.83365   1.000
    C268    C    0.27078   0.24703   0.88509   1.000
    C269    C    0.77078   0.24702   0.88509   1.000
    C270    C    0.26599   0.31121   0.91531   1.000
    C271    C    0.76600   0.31121   0.91532   1.000
    C272    C    0.34803   0.24225   0.66839   1.000
    C273    C    0.84805   0.24224   0.66839   1.000
    C274    C    0.42392   0.18099   0.59525   1.000
    C275    C    0.92394   0.18098   0.59525   1.000
    C276    C    0.25232   0.50171   0.99891   1.000
    C277    C    0.75252   0.50174   0.99888   1.000
    C278    C    0.25655   0.43495   0.97166   1.000
    C279    C    0.75667   0.43496   0.97166   1.000
    C280    C    0.22121   0.05576   0.90082   1.000
    C281    C    0.72123   0.05576   0.90080   1.000
    C282    C    0.23345   0.37236   0.89306   1.000
    C283    C    0.73346   0.37236   0.89307   1.000
    C284    C    0.17081   0.00664   0.87306   1.000
    C285    C    0.67082   0.00663   0.87306   1.000
    C286    C    0.25302   0.03777   0.94939   1.000
    C287    C    0.75303   0.03776   0.94939   1.000
    C288    C    0.15482   0.94118   0.89260   1.000
    C289    C    0.65484   0.94118   0.89260   1.000
    C290    C    0.22792   0.43303   0.92083   1.000
    C291    C    0.72798   0.43304   0.92083   1.000
    C292    C    0.24028   0.97148   0.96811   1.000
    C293    C    0.74030   0.97148   0.96811   1.000
    C294    C    0.19206   0.92231   0.93966   1.000
    C295    C    0.69207   0.92231   0.93966   1.000
    C296    C    0.18592   0.84941   0.95764   1.000
    C297    C    0.68593   0.84941   0.95764   1.000
    C298    C    0.20322   0.81153   0.30411   1.000
    C299    C    0.70322   0.81153   0.30411   1.000
    C300    C    0.21117   0.62590   0.49446   1.000
    C301    C    0.71145   0.62591   0.49448   1.000
    C302    C    0.20774   0.68698   0.46680   1.000
    C303    C    0.70781   0.68695   0.46680   1.000
    C304    C    0.17104   0.81246   0.25079   1.000
    C305    C    0.67105   0.81247   0.25079   1.000
    C306    C    0.11144   0.81753   0.14857   1.000
    C307    C    0.61145   0.81753   0.14857   1.000
    C308    C    0.25213   0.81637   0.40728   1.000
    C309    C    0.75212   0.81636   0.40728   1.000
    C310    C    0.12899   0.87206   0.23073   1.000
    C311    C    0.62900   0.87206   0.23072   1.000
    C312    C    0.18134   0.75525   0.21862   1.000
    C313    C    0.68135   0.75525   0.21862   1.000
    C314    C    0.23207   0.87325   0.32683   1.000
    C315    C    0.73208   0.87324   0.32680   1.000
    C316    C    0.25525   0.87687   0.37832   1.000
    C317    C    0.75525   0.87686   0.37830   1.000
    C318    C    0.09986   0.87466   0.18050   1.000
    C319    C    0.59987   0.87466   0.18049   1.000
    C320    C    0.20345   0.75133   0.33365   1.000
    C321    C    0.70344   0.75133   0.33365   1.000
    C322    C    0.22921   0.75300   0.38500   1.000
    C323    C    0.72920   0.75299   0.38509   1.000
    C324    C    0.23400   0.68881   0.41532   1.000
    C325    C    0.73400   0.68880   0.41531   1.000
    C326    C    0.15196   0.75777   0.16839   1.000
    C327    C    0.65198   0.75777   0.16839   1.000
    C328    C    0.07608   0.81903   0.09525   1.000
    C329    C    0.57610   0.81902   0.09525   1.000
    C330    C    0.24748   0.49828   0.49888   1.000
    C331    C    0.74826   0.49838   0.49890   1.000
    C332    C    0.24334   0.56506   0.47166   1.000
    C333    C    0.74373   0.56509   0.47168   1.000
    C334    C    0.27877   0.94426   0.40082   1.000
    C335    C    0.77879   0.94425   0.40082   1.000
    C336    C    0.26654   0.62766   0.39307   1.000
    C337    C    0.76654   0.62765   0.39304   1.000
    C338    C    0.32918   0.99339   0.37300   1.000
    C339    C    0.82919   0.99338   0.37307   1.000
    C340    C    0.24698   0.96226   0.44900   1.000
    C341    C    0.74700   0.96225   0.44940   1.000
    C342    C    0.34516   0.05884   0.39261   1.000
    C343    C    0.84518   0.05883   0.39261   1.000
    C344    C    0.27202   0.56698   0.42083   1.000
    C345    C    0.77217   0.56700   0.42082   1.000
    C346    C    0.25971   0.02854   0.46810   1.000
    C347    C    0.75973   0.02853   0.46812   1.000
    C348    C    0.30793   0.07771   0.43966   1.000
    C349    C    0.80795   0.07770   0.43967   1.000
    C350    C    0.31407   0.15062   0.45764   1.000
    C351    C    0.81408   0.15061   0.45764   1.000
    C352    C    0.36349   0.68594   0.94888   1.000
    C353    C    0.86350   0.68594   0.94888   1.000
    C354    C    0.00667   0.67509   0.98040   1.000
    C355    C    0.50668   0.67509   0.98045   1.000
    C356    C    0.46483   0.94691   0.98010   1.000
    C357    C    0.96483   0.94691   0.98010   1.000
    C358    C    0.22173   0.37133   0.58078   1.000
    C359    C    0.72188   0.37131   0.58081   1.000
    C360    C    0.16036   0.26711   0.56668   1.000
    C361    C    0.66038   0.26714   0.56668   1.000
    C362    C    0.04204   0.99798   0.04468   1.000
    C363    C    0.54213   0.99796   0.04467   1.000
    C364    C    0.13649   0.31409   0.44888   1.000
    C365    C    0.63650   0.31408   0.44888   1.000
    C366    C    0.49331   0.32494   0.48045   1.000
    C367    C    0.99332   0.32493   0.48045   1.000
    C368    C    0.03517   0.05313   0.48008   1.000
    C369    C    0.53517   0.05312   0.48009   1.000
    C370    C    0.27821   0.62869   0.08080   1.000
    C371    C    0.77827   0.62869   0.08078   1.000
    C372    C    0.33963   0.73289   0.06668   1.000
    C373    C    0.83964   0.73291   0.06668   1.000
    C374    C    0.45809   0.00200   0.54471   1.000
    C375    C    0.95849   0.00192   0.54479   1.000
    C376    C    0.11349   0.81409   0.94888   1.000
    C377    C    0.61350   0.81409   0.94888   1.000
    C378    C    0.25668   0.82494   0.98045   1.000
    C379    C    0.75669   0.82494   0.98045   1.000
    C380    C    0.21481   0.55313   0.98008   1.000
    C381    C    0.71483   0.55312   0.98010   1.000
    C382    C    0.47176   0.12869   0.58079   1.000
    C383    C    0.97180   0.12868   0.58080   1.000
    C384    C    0.41037   0.23290   0.56668   1.000
    C385    C    0.91038   0.23288   0.56668   1.000
    C386    C    0.29163   0.50194   0.04477   1.000
    C387    C    0.79214   0.50206   0.04460   1.000
    C388    C    0.38649   0.18593   0.44888   1.000
    C389    C    0.88650   0.18593   0.44888   1.000
    C390    C    0.24330   0.17508   0.48045   1.000
    C391    C    0.74331   0.17507   0.48045   1.000
    C392    C    0.28517   0.44690   0.48010   1.000
    C393    C    0.78520   0.44682   0.48000   1.000
    C394    C    0.02824   0.87133   0.08079   1.000
    C395    C    0.52826   0.87133   0.08078   1.000
    C396    C    0.08963   0.76712   0.06668   1.000
    C397    C    0.58964   0.76711   0.06668   1.000
    C398    C    0.20787   0.49796   0.54460   1.000
    C399    C    0.70996   0.49831   0.54507   1.000
    O400    O    0.75458   0.96422   0.98645   1.000
    O401    O    0.25457   0.96422   0.98645   1.000
    O402    O    0.00456   0.53580   0.98645   1.000
    O403    O    0.50456   0.53580   0.98645   1.000
    O404    O    0.80027   0.37474   0.01415   1.000
    O405    O    0.05024   0.12528   0.01415   1.000
    O406    O    0.55027   0.12528   0.01415   1.000
    O407    O    0.30017   0.37473   0.01416   1.000
    O408    O    0.79031   0.52617   0.05210   1.000
    O409    O    0.77233   0.50190   0.02174   1.000
    O410    O    0.54031   0.97385   0.05214   1.000
    O411    O    0.52232   0.99813   0.02177   1.000
    O412    O    0.04023   0.97387   0.05215   1.000
    O413    O    0.02226   0.99814   0.02178   1.000
    O414    O    0.28987   0.52606   0.05223   1.000
    O415    O    0.27197   0.50183   0.02184   1.000
    O416    O    0.08286   0.79307   0.08096   1.000
    O417    O    0.14073   0.72980   0.03264   1.000
    O418    O    0.58287   0.79307   0.08096   1.000
    O419    O    0.64074   0.72980   0.03264   1.000
    O420    O    0.83287   0.70695   0.08096   1.000
    O421    O    0.89074   0.77023   0.03264   1.000
    O422    O    0.33285   0.70694   0.08096   1.000
    O423    O    0.39073   0.77022   0.03264   1.000
    O424    O    0.55218   0.84518   0.08801   1.000
    O425    O    0.80219   0.65484   0.08801   1.000
    O426    O    0.05216   0.84518   0.08802   1.000
    O427    O    0.30214   0.65484   0.08802   1.000
    O428    O    0.09376   0.81828   0.12191   1.000
    O429    O    0.59377   0.81827   0.12191   1.000
    O430    O    0.84378   0.68175   0.12191   1.000
    O431    O    0.34375   0.68174   0.12191   1.000
    O432    O    0.40583   0.76465   0.15597   1.000
    O433    O    0.90584   0.76466   0.15616   1.000
    O434    O    0.15583   0.73537   0.15616   1.000
    O435    O    0.65584   0.73537   0.15616   1.000
    O436    O    0.88171   0.71237   0.15848   1.000
    O437    O    0.85566   0.65393   0.16453   1.000
    O438    O    0.13170   0.78765   0.15848   1.000
    O439    O    0.10565   0.84609   0.16453   1.000
    O440    O    0.63171   0.78765   0.15848   1.000
    O441    O    0.60566   0.84609   0.16453   1.000
    O442    O    0.38170   0.71237   0.15829   1.000
    O443    O    0.35565   0.65392   0.16454   1.000
    O444    O    0.58308   0.89760   0.17299   1.000
    O445    O    0.08307   0.89760   0.17300   1.000
    O446    O    0.83309   0.60242   0.17299   1.000
    O447    O    0.33307   0.60241   0.17300   1.000
    O448    O    0.41666   0.74351   0.19331   1.000
    O449    O    0.91667   0.74352   0.19351   1.000
    O450    O    0.16665   0.75651   0.19351   1.000
    O451    O    0.66666   0.75651   0.19351   1.000
    O452    O    0.86444   0.62666   0.20559   1.000
    O453    O    0.61443   0.87336   0.20561   1.000
    O454    O    0.36443   0.62666   0.20561   1.000
    O455    O    0.11442   0.87336   0.20561   1.000
    O456    O    0.44815   0.76799   0.22565   1.000
    O457    O    0.42620   0.71616   0.23470   1.000
    O458    O    0.94816   0.76799   0.22565   1.000
    O459    O    0.92621   0.71617   0.23470   1.000
    O460    O    0.19815   0.73203   0.22565   1.000
    O461    O    0.17619   0.78385   0.23470   1.000
    O462    O    0.69816   0.73203   0.22565   1.000
    O463    O    0.67620   0.78386   0.23470   1.000
    O464    O    0.90003   0.65776   0.24074   1.000
    O465    O    0.87327   0.60571   0.24294   1.000
    O466    O    0.65002   0.84226   0.24075   1.000
    O467    O    0.62327   0.89431   0.24295   1.000
    O468    O    0.40002   0.65775   0.24076   1.000
    O469    O    0.37327   0.60571   0.24286   1.000
    O470    O    0.15001   0.84226   0.24076   1.000
    O471    O    0.12326   0.89430   0.24296   1.000
    O472    O    0.18713   0.81199   0.27745   1.000
    O473    O    0.68714   0.81200   0.27745   1.000
    O474    O    0.43714   0.68802   0.27744   1.000
    O475    O    0.93714   0.68803   0.27745   1.000
    O476    O    0.46766   0.65763   0.31547   1.000
    O477    O    0.45334   0.71859   0.31888   1.000
    O478    O    0.96766   0.65764   0.31547   1.000
    O479    O    0.95334   0.71859   0.31888   1.000
    O480    O    0.71765   0.84238   0.31545   1.000
    O481    O    0.70333   0.78143   0.31888   1.000
    O482    O    0.21765   0.84239   0.31547   1.000
    O483    O    0.20334   0.78143   0.31888   1.000
    O484    O    0.23310   0.89673   0.31553   1.000
    O485    O    0.73311   0.89672   0.31551   1.000
    O486    O    0.98312   0.60330   0.31553   1.000
    O487    O    0.48312   0.60329   0.31554   1.000
    O488    O    0.69143   0.72718   0.32543   1.000
    O489    O    0.19144   0.72718   0.32543   1.000
    O490    O    0.44144   0.77283   0.32544   1.000
    O491    O    0.94144   0.77284   0.32543   1.000
    O492    O    0.74366   0.87505   0.35255   1.000
    O493    O    0.99366   0.62497   0.35257   1.000
    O494    O    0.24366   0.87506   0.35257   1.000
    O495    O    0.49367   0.62497   0.35258   1.000
    O496    O    0.21633   0.75216   0.35932   1.000
    O497    O    0.71632   0.75216   0.35937   1.000
    O498    O    0.96634   0.74786   0.35937   1.000
    O499    O    0.46633   0.74786   0.35938   1.000
    O500    O    0.09310   0.51360   0.35453   1.000
    O501    O    0.34311   0.98642   0.35451   1.000
    O502    O    0.59313   0.51361   0.35455   1.000
    O503    O    0.84312   0.98641   0.35454   1.000
    O504    O    0.77826   0.62813   0.37341   1.000
    O505    O    0.02827   0.87189   0.37343   1.000
    O506    O    0.27830   0.62813   0.37345   1.000
    O507    O    0.52829   0.87189   0.37345   1.000
    O508    O    0.11508   0.42227   0.38190   1.000
    O509    O    0.86511   0.07773   0.38195   1.000
    O510    O    0.36509   0.07774   0.38195   1.000
    O511    O    0.61512   0.42228   0.38196   1.000
    O512    O    0.33717   0.02611   0.38281   1.000
    O513    O    0.30398   0.96883   0.38691   1.000
    O514    O    0.08716   0.47391   0.38283   1.000
    O515    O    0.05397   0.53120   0.38694   1.000
    O516    O    0.83719   0.02610   0.38284   1.000
    O517    O    0.80399   0.96881   0.38694   1.000
    O518    O    0.58720   0.47391   0.38285   1.000
    O519    O    0.55401   0.53121   0.38695   1.000
    O520    O    0.76702   0.91056   0.38956   1.000
    O521    O    0.75369   0.84661   0.39279   1.000
    O522    O    0.01701   0.58946   0.38957   1.000
    O523    O    0.00262   0.65341   0.39280   1.000
    O524    O    0.26701   0.91057   0.38957   1.000
    O525    O    0.25369   0.84662   0.39280   1.000
    O526    O    0.51703   0.58946   0.38958   1.000
    O527    O    0.50370   0.65341   0.39281   1.000
    O528    O    0.24067   0.78468   0.39614   1.000
    O529    O    0.23160   0.72091   0.40016   1.000
    O530    O    0.98961   0.71534   0.39619   1.000
    O531    O    0.98161   0.77912   0.40020   1.000
    O532    O    0.74066   0.78467   0.39619   1.000
    O533    O    0.73160   0.72090   0.40020   1.000
    O534    O    0.49067   0.71534   0.39619   1.000
    O535    O    0.48160   0.77912   0.40021   1.000
    O536    O    0.07654   0.43174   0.41613   1.000
    O537    O    0.32655   0.06828   0.41613   1.000
    O538    O    0.82657   0.06826   0.41614   1.000
    O539    O    0.57659   0.43175   0.41615   1.000
    O540    O    0.75027   0.65823   0.40418   1.000
    O541    O    0.76936   0.59733   0.40693   1.000
    O542    O    0.00027   0.84179   0.40419   1.000
    O543    O    0.01929   0.90270   0.40694   1.000
    O544    O    0.50027   0.84179   0.40419   1.000
    O545    O    0.51929   0.90270   0.40695   1.000
    O546    O    0.25027   0.65824   0.40419   1.000
    O547    O    0.26928   0.59732   0.40695   1.000
    O548    O    0.26288   0.95326   0.42491   1.000
    O549    O    0.76289   0.95325   0.42511   1.000
    O550    O    0.01289   0.54677   0.42511   1.000
    O551    O    0.51292   0.54677   0.42512   1.000
    O552    O    0.78542   0.54347   0.41227   1.000
    O553    O    0.03531   0.95656   0.41228   1.000
    O554    O    0.28527   0.54346   0.41229   1.000
    O555    O    0.53529   0.95656   0.41229   1.000
    O556    O    0.76238   0.81725   0.42364   1.000
    O557    O    0.51239   0.68276   0.42714   1.000
    O558    O    0.26238   0.81727   0.42714   1.000
    O559    O    0.01131   0.68276   0.42364   1.000
    O560    O    0.72090   0.68788   0.44106   1.000
    O561    O    0.47087   0.81213   0.44106   1.000
    O562    O    0.97089   0.81213   0.44106   1.000
    O563    O    0.22087   0.68790   0.44106   1.000
    O564    O    0.75795   0.56604   0.44625   1.000
    O565    O    0.50771   0.93400   0.44625   1.000
    O566    O    0.25768   0.56602   0.44624   1.000
    O567    O    0.00777   0.93399   0.44625   1.000
    O568    O    0.06099   0.38585   0.44865   1.000
    O569    O    0.02896   0.44689   0.45389   1.000
    O570    O    0.31100   0.11416   0.44865   1.000
    O571    O    0.28382   0.05313   0.45388   1.000
    O572    O    0.81101   0.11415   0.44866   1.000
    O573    O    0.78384   0.05312   0.45389   1.000
    O574    O    0.56103   0.38586   0.44866   1.000
    O575    O    0.53387   0.44690   0.45391   1.000
    O576    O    0.85029   0.16827   0.45326   1.000
    O577    O    0.35028   0.16827   0.45326   1.000
    O578    O    0.10028   0.33174   0.45326   1.000
    O579    O    0.60029   0.33174   0.45327   1.000
    O580    O    0.25335   0.99540   0.45855   1.000
    O581    O    0.22734   0.94359   0.46022   1.000
    O582    O    0.99850   0.50462   0.45875   1.000
    O583    O    0.97738   0.55644   0.46042   1.000
    O584    O    0.75336   0.99539   0.45876   1.000
    O585    O    0.72735   0.94358   0.46042   1.000
    O586    O    0.50339   0.50463   0.45877   1.000
    O587    O    0.47738   0.55644   0.46040   1.000
    O588    O    0.27869   0.16285   0.46904   1.000
    O589    O    0.77869   0.16284   0.46904   1.000
    O590    O    0.02869   0.33717   0.46904   1.000
    O591    O    0.52870   0.33717   0.46905   1.000
    O592    O    0.69455   0.71029   0.47573   1.000
    O593    O    0.70963   0.65643   0.48064   1.000
    O594    O    0.94454   0.78970   0.47574   1.000
    O595    O    0.95953   0.84358   0.48063   1.000
    O596    O    0.44453   0.78970   0.47574   1.000
    O597    O    0.45949   0.84358   0.48063   1.000
    O598    O    0.19452   0.71032   0.47574   1.000
    O599    O    0.20946   0.65644   0.48063   1.000
    O600    O    0.24543   0.03579   0.48645   1.000
    O601    O    0.99059   0.46422   0.48646   1.000
    O602    O    0.74544   0.03579   0.48646   1.000
    O603    O    0.49547   0.46423   0.48647   1.000
    O604    O    0.22726   0.59548   0.48306   1.000
    O605    O    0.24541   0.53167   0.48527   1.000
    O606    O    0.47730   0.90454   0.48307   1.000
    O607    O    0.49548   0.96834   0.48528   1.000
    O608    O    0.97738   0.90453   0.48307   1.000
    O609    O    0.99560   0.96832   0.48529   1.000
    O610    O    0.72759   0.59550   0.48308   1.000
    O611    O    0.74599   0.53173   0.48529   1.000
    O612    O    0.76673   0.47260   0.48945   1.000
    O613    O    0.01645   0.02741   0.48949   1.000
    O614    O    0.51637   0.02742   0.48949   1.000
    O615    O    0.26632   0.47259   0.48949   1.000
    O616    O    0.15073   0.18378   0.48952   1.000
    O617    O    0.65073   0.18378   0.48953   1.000
    O618    O    0.90074   0.31622   0.48952   1.000
    O619    O    0.40073   0.31624   0.48953   1.000
    O620    O    0.19973   0.62528   0.51415   1.000
    O621    O    0.44978   0.87474   0.51414   1.000
    O622    O    0.94985   0.87473   0.51416   1.000
    O623    O    0.70004   0.62528   0.51417   1.000
    O624    O    0.85927   0.27020   0.53264   1.000
    O625    O    0.10925   0.22979   0.53264   1.000
    O626    O    0.35926   0.27022   0.53264   1.000
    O627    O    0.60927   0.22981   0.53264   1.000
    O628    O    0.22767   0.49812   0.52174   1.000
    O629    O    0.72911   0.49835   0.52199   1.000
    O630    O    0.47783   0.00186   0.52180   1.000
    O631    O    0.97811   0.00181   0.52185   1.000
    O632    O    0.20970   0.47385   0.55211   1.000
    O633    O    0.45988   0.02612   0.55218   1.000
    O634    O    0.96023   0.02605   0.55225   1.000
    O635    O    0.71144   0.47415   0.55248   1.000
    O636    O    0.41714   0.20694   0.58096   1.000
    O637    O    0.16713   0.29306   0.58096   1.000
    O638    O    0.91716   0.20693   0.58096   1.000
    O639    O    0.66717   0.29309   0.58096   1.000
    O640    O    0.19782   0.34517   0.58801   1.000
    O641    O    0.44784   0.15484   0.58802   1.000
    O642    O    0.94787   0.15483   0.58802   1.000
    O643    O    0.69793   0.34517   0.58803   1.000
    O644    O    0.40624   0.18174   0.62191   1.000
    O645    O    0.15623   0.31827   0.62191   1.000
    O646    O    0.65627   0.31829   0.62191   1.000
    O647    O    0.90626   0.18173   0.62191   1.000
    O648    O    0.34417   0.26465   0.65614   1.000
    O649    O    0.59418   0.23538   0.65614   1.000
    O650    O    0.84418   0.26465   0.65615   1.000
    O651    O    0.09417   0.23536   0.65616   1.000
    O652    O    0.36829   0.21237   0.65848   1.000
    O653    O    0.39435   0.15392   0.66453   1.000
    O654    O    0.11829   0.28764   0.65848   1.000
    O655    O    0.14434   0.34609   0.66429   1.000
    O656    O    0.61831   0.28766   0.65848   1.000
    O657    O    0.64436   0.34610   0.66453   1.000
    O658    O    0.86831   0.21236   0.65848   1.000
    O659    O    0.89436   0.15392   0.66453   1.000
    O660    O    0.16692   0.39760   0.67275   1.000
    O661    O    0.41692   0.10241   0.67300   1.000
    O662    O    0.66694   0.39762   0.67300   1.000
    O663    O    0.91694   0.10241   0.67300   1.000
    O664    O    0.08334   0.25650   0.69350   1.000
    O665    O    0.58335   0.25652   0.69350   1.000
    O666    O    0.83335   0.24351   0.69350   1.000
    O667    O    0.33334   0.24351   0.69350   1.000
    O668    O    0.13556   0.37336   0.70536   1.000
    O669    O    0.63558   0.37337   0.70561   1.000
    O670    O    0.88558   0.12666   0.70561   1.000
    O671    O    0.38557   0.12666   0.70560   1.000
    O672    O    0.80185   0.26798   0.72563   1.000
    O673    O    0.82381   0.21616   0.73470   1.000
    O674    O    0.30184   0.26799   0.72563   1.000
    O675    O    0.32380   0.21616   0.73470   1.000
    O676    O    0.55185   0.23204   0.72563   1.000
    O677    O    0.57380   0.28386   0.73470   1.000
    O678    O    0.05184   0.23203   0.72564   1.000
    O679    O    0.07379   0.28385   0.73471   1.000
    O680    O    0.34998   0.15776   0.74074   1.000
    O681    O    0.37673   0.10571   0.74294   1.000
    O682    O    0.09997   0.34226   0.74075   1.000
    O683    O    0.12673   0.39431   0.74295   1.000
    O684    O    0.84999   0.15776   0.74076   1.000
    O685    O    0.87674   0.10571   0.74296   1.000
    O686    O    0.59998   0.34227   0.74076   1.000
    O687    O    0.62674   0.39431   0.74296   1.000
    O688    O    0.81287   0.18803   0.77745   1.000
    O689    O    0.06285   0.31199   0.77745   1.000
    O690    O    0.56286   0.31200   0.77745   1.000
    O691    O    0.31286   0.18802   0.77745   1.000
    O692    O    0.78235   0.15764   0.81547   1.000
    O693    O    0.79666   0.21859   0.81888   1.000
    O694    O    0.53234   0.34239   0.81547   1.000
    O695    O    0.54665   0.28143   0.81888   1.000
    O696    O    0.03234   0.34238   0.81547   1.000
    O697    O    0.04665   0.28143   0.81888   1.000
    O698    O    0.28235   0.15764   0.81547   1.000
    O699    O    0.29665   0.21859   0.81888   1.000
    O700    O    0.76690   0.10329   0.81553   1.000
    O701    O    0.26689   0.10329   0.81553   1.000
    O702    O    0.51689   0.39673   0.81553   1.000
    O703    O    0.01688   0.39673   0.81553   1.000
    O704    O    0.80856   0.27284   0.82543   1.000
    O705    O    0.55856   0.22719   0.82543   1.000
    O706    O    0.05855   0.22719   0.82543   1.000
    O707    O    0.30856   0.27284   0.82543   1.000
    O708    O    0.50633   0.37506   0.85257   1.000
    O709    O    0.00633   0.37506   0.85257   1.000
    O710    O    0.25633   0.12497   0.85257   1.000
    O711    O    0.75634   0.12497   0.85257   1.000
    O712    O    0.53366   0.25217   0.85937   1.000
    O713    O    0.03365   0.25217   0.85937   1.000
    O714    O    0.78366   0.24786   0.85937   1.000
    O715    O    0.28366   0.24786   0.85937   1.000
    O716    O    0.40687   0.48642   0.85454   1.000
    O717    O    0.15688   0.01360   0.85454   1.000
    O718    O    0.90689   0.48642   0.85454   1.000
    O719    O    0.65689   0.01360   0.85454   1.000
    O720    O    0.22170   0.37189   0.87343   1.000
    O721    O    0.72170   0.37189   0.87345   1.000
    O722    O    0.97171   0.12813   0.87345   1.000
    O723    O    0.47170   0.12813   0.87345   1.000
    O724    O    0.88492   0.57775   0.88194   1.000
    O725    O    0.38490   0.57775   0.88195   1.000
    O726    O    0.13490   0.92228   0.88194   1.000
    O727    O    0.63491   0.92228   0.88194   1.000
    O728    O    0.16282   0.97391   0.88283   1.000
    O729    O    0.19601   0.03120   0.88694   1.000
    O730    O    0.91283   0.52612   0.88283   1.000
    O731    O    0.94602   0.46882   0.88693   1.000
    O732    O    0.41281   0.52611   0.88283   1.000
    O733    O    0.44600   0.46882   0.88694   1.000
    O734    O    0.66283   0.97391   0.88283   1.000
    O735    O    0.69602   0.03120   0.88693   1.000
    O736    O    0.98299   0.41056   0.88956   1.000
    O737    O    0.99631   0.34662   0.89276   1.000
    O738    O    0.48297   0.41056   0.88957   1.000
    O739    O    0.49630   0.34662   0.89280   1.000
    O740    O    0.23298   0.08946   0.88957   1.000
    O741    O    0.24631   0.15340   0.89279   1.000
    O742    O    0.73299   0.08946   0.88956   1.000
    O743    O    0.74631   0.15340   0.89280   1.000
    O744    O    0.25932   0.21534   0.89618   1.000
    O745    O    0.26838   0.27912   0.90020   1.000
    O746    O    0.75933   0.21534   0.89619   1.000
    O747    O    0.76839   0.27912   0.90020   1.000
    O748    O    0.00931   0.28468   0.89614   1.000
    O749    O    0.01838   0.22091   0.90020   1.000
    O750    O    0.50932   0.28468   0.89619   1.000
    O751    O    0.51839   0.22091   0.90020   1.000
    O752    O    0.92346   0.56829   0.91613   1.000
    O753    O    0.67345   0.93174   0.91613   1.000
    O754    O    0.17344   0.93175   0.91613   1.000
    O755    O    0.42343   0.56828   0.91613   1.000
    O756    O    0.24972   0.34178   0.90418   1.000
    O757    O    0.23069   0.40270   0.90694   1.000
    O758    O    0.74973   0.34178   0.90419   1.000
    O759    O    0.73072   0.40270   0.90695   1.000
    O760    O    0.49973   0.15824   0.90419   1.000
    O761    O    0.48072   0.09732   0.90695   1.000
    O762    O    0.99973   0.15824   0.90419   1.000
    O763    O    0.98073   0.09732   0.90695   1.000
    O764    O    0.73713   0.04676   0.92510   1.000
    O765    O    0.98711   0.45326   0.92510   1.000
    O766    O    0.23712   0.04676   0.92510   1.000
    O767    O    0.48711   0.45326   0.92510   1.000
    O768    O    0.46473   0.04345   0.91226   1.000
    O769    O    0.71473   0.45656   0.91228   1.000
    O770    O    0.21468   0.45656   0.91228   1.000
    O771    O    0.96474   0.04346   0.91228   1.000
    O772    O    0.98761   0.31727   0.92710   1.000
    O773    O    0.23761   0.18276   0.92713   1.000
    O774    O    0.73762   0.18275   0.92713   1.000
    O775    O    0.48761   0.31727   0.92713   1.000
    O776    O    0.27911   0.31213   0.94105   1.000
    O777    O    0.77913   0.31213   0.94106   1.000
    O778    O    0.02911   0.18790   0.94106   1.000
    O779    O    0.52913   0.18790   0.94106   1.000
    O780    O    0.99231   0.06602   0.94624   1.000
    O781    O    0.24224   0.43399   0.94624   1.000
    O782    O    0.49232   0.06602   0.94624   1.000
    O783    O    0.74232   0.43400   0.94624   1.000
    O784    O    0.93900   0.61417   0.94865   1.000
    O785    O    0.96617   0.55314   0.95388   1.000
    O786    O    0.43898   0.61417   0.94865   1.000
    O787    O    0.46616   0.55313   0.95388   1.000
    O788    O    0.68900   0.88586   0.94865   1.000
    O789    O    0.71618   0.94689   0.95388   1.000
    O790    O    0.18899   0.88586   0.94865   1.000
    O791    O    0.21617   0.94690   0.95388   1.000
    O792    O    0.39970   0.66828   0.95326   1.000
    O793    O    0.89972   0.66828   0.95326   1.000
    O794    O    0.14971   0.83175   0.95326   1.000
    O795    O    0.64971   0.83175   0.95326   1.000
    O796    O    0.49664   0.49540   0.95874   1.000
    O797    O    0.52264   0.44359   0.96039   1.000
    O798    O    0.99664   0.49541   0.95875   1.000
    O799    O    0.02264   0.44359   0.96041   1.000
    O800    O    0.74666   0.00462   0.95875   1.000
    O801    O    0.77267   0.05643   0.96041   1.000
    O802    O    0.24665   0.00462   0.95875   1.000
    O803    O    0.27266   0.05643   0.96041   1.000
    O804    O    0.47130   0.66286   0.96904   1.000
    O805    O    0.97130   0.66286   0.96902   1.000
    O806    O    0.22130   0.83718   0.96904   1.000
    O807    O    0.72131   0.83717   0.96904   1.000
    O808    O    0.30546   0.28970   0.97570   1.000
    O809    O    0.29048   0.34358   0.98063   1.000
    O810    O    0.80548   0.28970   0.97574   1.000
    O811    O    0.79054   0.34358   0.98063   1.000
    O812    O    0.55547   0.21033   0.97574   1.000
    O813    O    0.54054   0.15644   0.98063   1.000
    O814    O    0.05546   0.21033   0.97574   1.000
    O815    O    0.04052   0.15644   0.98063   1.000
    O816    O    0.27264   0.40453   0.98306   1.000
    O817    O    0.25443   0.46833   0.98528   1.000
    O818    O    0.77275   0.40454   0.98306   1.000
    O819    O    0.75460   0.46835   0.98527   1.000
    O820    O    0.52274   0.09548   0.98306   1.000
    O821    O    0.50459   0.03167   0.98527   1.000
    O822    O    0.02272   0.09549   0.98306   1.000
    O823    O    0.00456   0.03168   0.98527   1.000
    O824    O    0.23356   0.52742   0.98949   1.000
    O825    O    0.73368   0.52743   0.98949   1.000
    O826    O    0.98365   0.97260   0.98949   1.000
    O827    O    0.48367   0.97260   0.98949   1.000
    O828    O    0.09925   0.68379   0.98950   1.000
    O829    O    0.34926   0.81624   0.98952   1.000
    O830    O    0.84927   0.81624   0.98952   1.000
    O831    O    0.59926   0.68379   0.98952   1.000
    O832    O    0.27766   0.68921   0.97374   1.000
    O833    O    0.40266   0.74674   0.97374   1.000
    O834    O    0.77767   0.68921   0.97374   1.000
    O835    O    0.90267   0.74674   0.97374   1.000
    O836    O    0.97426   0.74132   0.98950   1.000
    O837    O    0.47426   0.74132   0.98952   1.000
    O838    O    0.45333   0.87723   0.98935   1.000
    O839    O    0.95334   0.87723   0.98935   1.000
    O840    O    0.26495   0.33943   0.53969   1.000
    O841    O    0.76502   0.33941   0.53970   1.000
    O842    O    0.23426   0.28732   0.53264   1.000
    O843    O    0.73427   0.28732   0.53264   1.000
    O844    O    0.22232   0.31081   0.47374   1.000
    O845    O    0.09732   0.25328   0.47374   1.000
    O846    O    0.72233   0.31079   0.47374   1.000
    O847    O    0.59733   0.25328   0.47374   1.000
    O848    O    0.52573   0.25871   0.48953   1.000
    O849    O    0.02573   0.25871   0.48952   1.000
    O850    O    0.04666   0.12280   0.48934   1.000
    O851    O    0.54667   0.12280   0.48935   1.000
    O852    O    0.23502   0.66059   0.03970   1.000
    O853    O    0.73505   0.66059   0.03969   1.000
    O854    O    0.26573   0.71269   0.03264   1.000
    O855    O    0.76574   0.71270   0.03264   1.000
    O856    O    0.15266   0.75329   0.97374   1.000
    O857    O    0.02767   0.81082   0.97374   1.000
    O858    O    0.65267   0.75329   0.97374   1.000
    O859    O    0.52767   0.81082   0.97374   1.000
    O860    O    0.22425   0.75872   0.98952   1.000
    O861    O    0.72426   0.75871   0.98952   1.000
    O862    O    0.20332   0.62281   0.98934   1.000
    O863    O    0.70333   0.62280   0.98935   1.000
    O864    O    0.51496   0.16059   0.53970   1.000
    O865    O    0.01498   0.16058   0.53970   1.000
    O866    O    0.48426   0.21269   0.53264   1.000
    O867    O    0.98427   0.21268   0.53264   1.000
    O868    O    0.34733   0.24673   0.47374   1.000
    O869    O    0.47233   0.18921   0.47374   1.000
    O870    O    0.84733   0.24672   0.47374   1.000
    O871    O    0.97232   0.18920   0.47374   1.000
    O872    O    0.27573   0.24131   0.48953   1.000
    O873    O    0.77573   0.24129   0.48952   1.000
    O874    O    0.29666   0.37722   0.48936   1.000
    O875    O    0.79668   0.37716   0.48930   1.000
    O876    O    0.98504   0.83944   0.03969   1.000
    O877    O    0.48505   0.83944   0.03969   1.000
    O878    O    0.01574   0.78733   0.03264   1.000
    O879    O    0.51574   0.78733   0.03264   1.000
loop_
    _geom_bond_atom_site_label_1
    _geom_bond_atom_site_label_2
    _geom_bond_distance
    _geom_bond_site_symmetry_2
    _ccdc_geom_bond_type
    C103   O400      0.54440  1_554   S
    C293   O400      0.54440      .   S
    C102   O401      0.54441  1_554   S
    C292   O401      0.54441      .   S
    C38    O402      0.54434  1_554   S
    C184   O402      0.54434  1_655   S
    C39    O403      0.54460  1_554   S
    C185   O403      0.54460      .   S
    C73    O404      0.54478      .   S
    C247   O404      0.54478  1_556   S
    C8     O405      0.54465      .   S
    C138   O405      0.54465  1_556   S
    C9     O406      0.54478      .   S
    C139   O406      0.54478  1_556   S
    C72    O407      0.54473      .   S
    C246   O407      0.54473  1_556   S
    C387   O408      0.50864      .   S
    C91    O408      0.50864      .   S
    C387   O409      0.66727      .   S
    C277   O409      0.66727  1_556   S
    C363   O410      0.50839      .   S
    C27    O410      0.50839      .   S
    C363   O411      0.66810      .   S
    C169   O411      0.66810  1_556   S
    C362   O412      0.50839      .   S
    C26    O412      0.50839      .   S
    C362   O413      0.66796      .   S
    C168   O413      0.66796  1_556   S
    C386   O414      0.50834      .   S
    C90    O414      0.50834      .   S
    C386   O415      0.66800      .   S
    C276   O415      0.66800  1_556   S
    C396   O416      0.63641      .   S
    C328   O416      0.63641      .   S
    C396   O417      1.37054      .   S
    C0     O417      1.37054  1_556   S
    C397   O418      0.63642      .   S
    C329   O418      0.63642      .   S
    C397   O419      1.37051      .   S
    C1     O419      1.37051  1_556   S
    C373   O420      0.63642      .   S
    C221   O420      0.63642      .   S
    C373   O421      1.37057      .   S
    C5     O421      1.37057  1_556   S
    C372   O422      0.63638      .   S
    C220   O422      0.63638      .   S
    C372   O423      1.37066      .   S
    C4     O423      1.37066  1_556   S
    C395   O424      0.64375      .   S
    C329   O424      0.64375      .   S
    C371   O425      0.64375      .   S
    C221   O425      0.64375      .   S
    C394   O426      0.64372      .   S
    C328   O426      0.64372      .   S
    C370   O427      0.64371      .   S
    C220   O427      0.64371      .   S
    C328   O428      0.74781      .   S
    C306   O428      0.74781      .   S
    C329   O429      0.74780      .   S
    C307   O429      0.74780      .   S
    C221   O430      0.74780      .   S
    C199   O430      0.74780      .   S
    C220   O431      0.74797      .   S
    C198   O431      0.74797      .   S
    C56    O432      0.54105      .   S
    C218   O432      0.54105      .   S
    C57    O433      0.54408      .   S
    C219   O433      0.54408      .   S
    C120   O434      0.54406      .   S
    C326   O434      0.54406      .   S
    C121   O435      0.54407      .   S
    C327   O435      0.54407      .   S
    C199   O436      0.70061      .   S
    C219   O436      0.70061      .   S
    C199   O437      0.70087      .   S
    C211   O437      0.70087      .   S
    C306   O438      0.70062      .   S
    C326   O438      0.70062      .   S
    C306   O439      0.70094      .   S
    C318   O439      0.70094      .   S
    C307   O440      0.70061      .   S
    C327   O440      0.70061      .   S
    C307   O441      0.70087      .   S
    C319   O441      0.70087      .   S
    C198   O442      0.69868      .   S
    C218   O442      0.69868      .   S
    C198   O443      0.70085      .   S
    C210   O443      0.70085      .   S
    C117   O444      0.54468      .   S
    C319   O444      0.54468      .   S
    C116   O445      0.54473      .   S
    C318   O445      0.54473      .   S
    C53    O446      0.54468      .   S
    C211   O446      0.54468      .   S
    C52    O447      0.54469      .   S
    C210   O447      0.54469      .   S
    C218   O448      0.70041      .   S
    C204   O448      0.70041      .   S
    C219   O449      0.69552      .   S
    C205   O449      0.69552      .   S
    C326   O450      0.69552      .   S
    C312   O450      0.69552      .   S
    C327   O451      0.69552      .   S
    C313   O451      0.69552      .   S
    C211   O452      0.69474      .   S
    C203   O452      0.69474      .   S
    C319   O453      0.69499      .   S
    C311   O453      0.69499      .   S
    C210   O454      0.69500      .   S
    C202   O454      0.69500      .   S
    C318   O455      0.69499      .   S
    C310   O455      0.69499      .   S
    C204   O456      0.54469      .   S
    C48    O456      0.54469      .   S
    C204   O457      0.70246      .   S
    C196   O457      0.70246      .   S
    C205   O458      0.54468      .   S
    C49    O458      0.54468      .   S
    C205   O459      0.70247      .   S
    C197   O459      0.70247      .   S
    C312   O460      0.54469      .   S
    C112   O460      0.54469      .   S
    C312   O461      0.70245      .   S
    C304   O461      0.70245      .   S
    C313   O462      0.54468      .   S
    C113   O462      0.54468      .   S
    C313   O463      0.70247      .   S
    C305   O463      0.70247      .   S
    C203   O464      0.70535      .   S
    C197   O464      0.70535      .   S
    C203   O465      0.54537      .   S
    C47    O465      0.54537      .   S
    C311   O466      0.70525      .   S
    C305   O466      0.70525      .   S
    C311   O467      0.54521      .   S
    C111   O467      0.54521      .   S
    C202   O468      0.70520      .   S
    C196   O468      0.70520      .   S
    C202   O469      0.54365      .   S
    C46    O469      0.54365      .   S
    C310   O470      0.70521      .   S
    C304   O470      0.70521      .   S
    C310   O471      0.54513      .   S
    C110   O471      0.54513      .   S
    C304   O472      0.74014      .   S
    C298   O472      0.74014      .   S
    C305   O473      0.74013      .   S
    C299   O473      0.74013      .   S
    C196   O474      0.74002      .   S
    C190   O474      0.74002      .   S
    C197   O475      0.74013      .   S
    C191   O475      0.74013      .   S
    C190   O476      0.70160      .   S
    C206   O476      0.70160      .   S
    C190   O477      0.70201      .   S
    C212   O477      0.70201      .   S
    C191   O478      0.70149      .   S
    C207   O478      0.70149      .   S
    C191   O479      0.70185      .   S
    C213   O479      0.70185      .   S
    C299   O480      0.70131      .   S
    C315   O480      0.70131      .   S
    C299   O481      0.70186      .   S
    C321   O481      0.70186      .   S
    C298   O482      0.70149      .   S
    C314   O482      0.70149      .   S
    C298   O483      0.70186      .   S
    C320   O483      0.70186      .   S
    C114   O484      0.54454      .   S
    C314   O484      0.54454      .   S
    C115   O485      0.54433      .   S
    C315   O485      0.54433      .   S
    C51    O486      0.54453      .   S
    C207   O486      0.54453      .   S
    C50    O487      0.54454      .   S
    C206   O487      0.54454      .   S
    C119   O488      0.54486      .   S
    C321   O488      0.54486      .   S
    C118   O489      0.54483      .   S
    C320   O489      0.54483      .   S
    C54    O490      0.54488      .   S
    C212   O490      0.54488      .   S
    C55    O491      0.54483      .   S
    C213   O491      0.54483      .   S
    C315   O492      0.69973      .   S
    C317   O492      0.69973      .   S
    C207   O493      0.69958      .   S
    C208   O493      0.69958  1_455   S
    C314   O494      0.69961      .   S
    C316   O494      0.69961      .   S
    C206   O495      0.69961      .   S
    C209   O495      0.69961      .   S
    C320   O496      0.70188      .   S
    C322   O496      0.70188      .   S
    C321   O497      0.70301      .   S
    C323   O497      0.70301      .   S
    C213   O498      0.70302      .   S
    C215   O498      0.70302      .   S
    C212   O499      0.70302      .   S
    C214   O499      0.70302      .   S
    C62    O500      0.54523      .   S
    C230   O500      0.54523      .   S
    C126   O501      0.54440      .   S
    C338   O501      0.54440      .   S
    C63    O502      0.54529      .   S
    C231   O502      0.54529      .   S
    C127   O503      0.54522      .   S
    C339   O503      0.54522      .   S
    C125   O504      0.54444      .   S
    C337   O504      0.54444      .   S
    C60    O505      0.54443      .   S
    C228   O505      0.54443      .   S
    C124   O506      0.54449      .   S
    C336   O506      0.54449      .   S
    C61    O507      0.54446      .   S
    C229   O507      0.54446      .   S
    C66    O508      0.54555      .   S
    C234   O508      0.54555      .   S
    C131   O509      0.54501      .   S
    C343   O509      0.54501      .   S
    C130   O510      0.54501      .   S
    C342   O510      0.54501      .   S
    C67    O511      0.54498      .   S
    C235   O511      0.54498      .   S
    C338   O512      0.69540  1_565   S
    C342   O512      0.69540      .   S
    C338   O513      0.70372      .   S
    C334   O513      0.70372      .   S
    C230   O514      0.69517      .   S
    C234   O514      0.69517      .   S
    C230   O515      0.70330      .   S
    C226   O515      0.70330      .   S
    C339   O516      0.69506  1_565   S
    C343   O516      0.69506      .   S
    C339   O517      0.70324      .   S
    C335   O517      0.70324      .   S
    C231   O518      0.69515      .   S
    C235   O518      0.69515      .   S
    C231   O519      0.70326      .   S
    C227   O519      0.70326      .   S
    C317   O520      0.73814      .   S
    C335   O520      0.73814      .   S
    C317   O521      0.70064      .   S
    C309   O521      0.70064      .   S
    C208   O522      0.73804      .   S
    C226   O522      0.73804      .   S
    C208   O523      0.70114      .   S
    C201   O523      0.70114      .   S
    C316   O524      0.73804      .   S
    C334   O524      0.73804      .   S
    C316   O525      0.70047      .   S
    C308   O525      0.70047      .   S
    C209   O526      0.73802      .   S
    C227   O526      0.73802      .   S
    C209   O527      0.70042      .   S
    C200   O527      0.70042      .   S
    C322   O528      0.70138      .   S
    C308   O528      0.70138      .   S
    C322   O529      0.74068      .   S
    C324   O529      0.74068      .   S
    C215   O530      0.69737      .   S
    C201   O530      0.69737  1_455   S
    C215   O531      0.74005      .   S
    C217   O531      0.74005      .   S
    C323   O532      0.70087      .   S
    C309   O532      0.70087      .   S
    C323   O533      0.74002      .   S
    C325   O533      0.74002      .   S
    C214   O534      0.70082      .   S
    C200   O534      0.70082      .   S
    C214   O535      0.73997      .   S
    C216   O535      0.73997      .   S
    C234   O536      0.70050      .   S
    C240   O536      0.70050      .   S
    C342   O537      0.70040      .   S
    C348   O537      0.70040      .   S
    C343   O538      0.70051      .   S
    C349   O538      0.70051      .   S
    C235   O539      0.70047      .   S
    C241   O539      0.70047      .   S
    C337   O540      0.70276      .   S
    C325   O540      0.70276      .   S
    C337   O541      0.69429      .   S
    C345   O541      0.69429      .   S
    C228   O542      0.70272      .   S
    C217   O542      0.70272  1_655   S
    C228   O543      0.69427      .   S
    C236   O543      0.69427      .   S
    C229   O544      0.70273      .   S
    C216   O544      0.70273      .   S
    C229   O545      0.69421      .   S
    C237   O545      0.69421      .   S
    C336   O546      0.70273      .   S
    C324   O546      0.70273      .   S
    C336   O547      0.69423      .   S
    C344   O547      0.69423      .   S
    C334   O548      0.69744      .   S
    C340   O548      0.69744      .   S
    C335   O549      0.70224      .   S
    C341   O549      0.70224      .   S
    C226   O550      0.70204      .   S
    C233   O550      0.70204  1_655   S
    C227   O551      0.70220      .   S
    C232   O551      0.70220      .   S
    C133   O552      0.54416      .   S
    C345   O552      0.54416      .   S
    C68    O553      0.54413      .   S
    C236   O553      0.54413      .   S
    C132   O554      0.54409      .   S
    C344   O554      0.54409      .   S
    C69    O555      0.54409      .   S
    C237   O555      0.54409      .   S
    C309   O556      0.45626      .   S
    C109   O556      0.45626      .   S
    C200   O557      0.54419      .   S
    C45    O557      0.54419      .   S
    C308   O558      0.54419      .   S
    C108   O558      0.54419      .   S
    C201   O559      0.46149      .   S
    C44    O559      0.46149      .   S
    C325   O560      0.70456      .   S
    C303   O560      0.70456      .   S
    C216   O561      0.70452      .   S
    C194   O561      0.70452      .   S
    C217   O562      0.70450      .   S
    C195   O562      0.70450      .   S
    C324   O563      0.70455      .   S
    C302   O563      0.70455      .   S
    C345   O564      0.70122      .   S
    C333   O564      0.70122      .   S
    C237   O565      0.70141      .   S
    C224   O565      0.70141      .   S
    C344   O566      0.70136      .   S
    C332   O566      0.70136      .   S
    C236   O567      0.70127      .   S
    C225   O567      0.70127  1_655   S
    C240   O568      0.74736      .   S
    C242   O568      0.74736      .   S
    C240   O569      0.73806      .   S
    C239   O569      0.73806      .   S
    C348   O570      0.74736      .   S
    C350   O570      0.74736      .   S
    C348   O571      0.70028      .   S
    C346   O571      0.70028      .   S
    C349   O572      0.74733      .   S
    C351   O572      0.74733      .   S
    C349   O573      0.70033      .   S
    C347   O573      0.70033      .   S
    C241   O574      0.74738      .   S
    C243   O574      0.74738      .   S
    C241   O575      0.70034      .   S
    C238   O575      0.70034      .   S
    C389   O576      0.63786      .   S
    C351   O576      0.63786      .   S
    C388   O577      0.63785      .   S
    C350   O577      0.63785      .   S
    C364   O578      0.63786      .   S
    C242   O578      0.63786      .   S
    C365   O579      0.63785      .   S
    C243   O579      0.63785      .   S
    C340   O580      0.69681      .   S
    C346   O580      0.69681  1_545   S
    C340   O581      0.54764      .   S
    C128   O581      0.54764      .   S
    C233   O582      0.68931      .   S
    C239   O582      0.68931  1_455   S
    C233   O583      0.54487      .   S
    C65    O583      0.54487      .   S
    C341   O584      0.69503      .   S
    C347   O584      0.69503  1_545   S
    C341   O585      0.54482      .   S
    C129   O585      0.54482      .   S
    C232   O586      0.69512      .   S
    C238   O586      0.69512      .   S
    C232   O587      0.54443      .   S
    C64    O587      0.54443      .   S
    C350   O588      0.64047      .   S
    C390   O588      0.64047      .   S
    C351   O589      0.64050      .   S
    C391   O589      0.64050      .   S
    C242   O590      0.64034      .   S
    C367   O590      0.64034  1_655   S
    C243   O591      0.64045      .   S
    C366   O591      0.64045      .   S
    C303   O592      0.54540      .   S
    C107   O592      0.54540      .   S
    C303   O593      0.69610      .   S
    C301   O593      0.69610      .   S
    C195   O594      0.54544      .   S
    C43    O594      0.54544      .   S
    C195   O595      0.69613      .   S
    C193   O595      0.69613      .   S
    C194   O596      0.54545      .   S
    C42    O596      0.54545      .   S
    C194   O597      0.69616      .   S
    C192   O597      0.69616      .   S
    C302   O598      0.54543      .   S
    C106   O598      0.54543      .   S
    C302   O599      0.69613      .   S
    C300   O599      0.69613      .   S
    C346   O600      0.54459      .   S
    C134   O600      0.54459      .   S
    C239   O601      0.52167  1_455   S
    C71    O601      0.52167      .   S
    C347   O602      0.54438      .   S
    C135   O602      0.54438      .   S
    C238   O603      0.54443      .   S
    C70    O603      0.54443      .   S
    C332   O604      0.70233      .   S
    C300   O604      0.70233      .   S
    C332   O605      0.74118      .   S
    C330   O605      0.74118      .   S
    C224   O606      0.70232      .   S
    C192   O606      0.70232      .   S
    C224   O607      0.74111      .   S
    C222   O607      0.74111  1_545   S
    C225   O608      0.70233      .   S
    C193   O608      0.70233      .   S
    C225   O609      0.74107      .   S
    C223   O609      0.74107  1_545   S
    C333   O610      0.70237      .   S
    C301   O610      0.70237      .   S
    C333   O611      0.74078      .   S
    C331   O611      0.74078      .   S
    C393   O612      0.61976      .   S
    C331   O612      0.61976      .   S
    C368   O613      0.62006      .   S
    C223   O613      0.62006  1_655   S
    C369   O614      0.62020      .   S
    C222   O614      0.62020      .   S
    C392   O615      0.62015      .   S
    C330   O615      0.62015      .   S
    C390   O616      1.37484      .   S
    C6     O616      1.37484      .   S
    C391   O617      1.37482      .   S
    C7     O617      1.37482      .   S
    C367   O618      1.37487      .   S
    C3     O618      1.37487      .   S
    C366   O619      1.37482      .   S
    C2     O619      1.37482      .   S
    C300   O620      0.54477      .   S
    C104   O620      0.54477      .   S
    C192   O621      0.54411      .   S
    C40    O621      0.54411      .   S
    C193   O622      0.54471      .   S
    C41    O622      0.54471      .   S
    C301   O623      0.54477      .   S
    C105   O623      0.54477      .   S
    C3     O624      1.37059      .   S
    C385   O624      1.37059      .   S
    C6     O625      1.37055      .   S
    C360   O625      1.37055      .   S
    C2     O626      1.37053      .   S
    C384   O626      1.37053      .   S
    C7     O627      1.37061      .   S
    C361   O627      1.37061      .   S
    C330   O628      0.66724      .   S
    C398   O628      0.66724      .   S
    C331   O629      0.66860      .   S
    C399   O629      0.66860      .   S
    C222   O630      0.66794      .   S
    C374   O630      0.66794      .   S
    C223   O631      0.66801      .   S
    C375   O631      0.66801      .   S
    C398   O632      0.50875      .   S
    C122   O632      0.50875      .   S
    C374   O633      0.50837      .   S
    C58    O633      0.50837      .   S
    C375   O634      0.50838      .   S
    C59    O634      0.50838      .   S
    C399   O635      0.50832      .   S
    C123   O635      0.50832      .   S
    C384   O636      0.63640      .   S
    C274   O636      0.63640      .   S
    C360   O637      0.63640      .   S
    C166   O637      0.63640      .   S
    C385   O638      0.63637      .   S
    C275   O638      0.63637      .   S
    C361   O639      0.63637      .   S
    C167   O639      0.63637      .   S
    C358   O640      0.64375      .   S
    C166   O640      0.64375      .   S
    C382   O641      0.64373      .   S
    C274   O641      0.64373      .   S
    C383   O642      0.64371      .   S
    C275   O642      0.64371      .   S
    C359   O643      0.64366      .   S
    C167   O643      0.64366      .   S
    C274   O644      0.74783      .   S
    C252   O644      0.74783      .   S
    C166   O645      0.74782      .   S
    C144   O645      0.74782      .   S
    C167   O646      0.74791      .   S
    C145   O646      0.74791      .   S
    C275   O647      0.74786      .   S
    C253   O647      0.74786      .   S
    C88    O648      0.54430      .   S
    C272   O648      0.54430      .   S
    C25    O649      0.54430      .   S
    C165   O649      0.54430      .   S
    C89    O650      0.54413      .   S
    C273   O650      0.54413      .   S
    C24    O651      0.54407      .   S
    C164   O651      0.54407      .   S
    C252   O652      0.70063      .   S
    C272   O652      0.70063      .   S
    C252   O653      0.70092      .   S
    C264   O653      0.70092      .   S
    C144   O654      0.70061      .   S
    C164   O654      0.70061      .   S
    C144   O655      0.69701      .   S
    C156   O655      0.69701      .   S
    C145   O656      0.70065      .   S
    C165   O656      0.70065      .   S
    C145   O657      0.70090      .   S
    C157   O657      0.70090      .   S
    C253   O658      0.70064      .   S
    C273   O658      0.70064      .   S
    C253   O659      0.70091      .   S
    C265   O659      0.70091      .   S
    C20    O660      0.54237      .   S
    C156   O660      0.54237      .   S
    C84    O661      0.54475      .   S
    C264   O661      0.54475      .   S
    C21    O662      0.54471      .   S
    C157   O662      0.54471      .   S
    C85    O663      0.54470      .   S
    C265   O663      0.54470      .   S
    C164   O664      0.69554      .   S
    C150   O664      0.69554      .   S
    C165   O665      0.69542      .   S
    C151   O665      0.69542      .   S
    C273   O666      0.69542      .   S
    C259   O666      0.69542      .   S
    C272   O667      0.69541      .   S
    C258   O667      0.69541      .   S
    C156   O668      0.70115      .   S
    C148   O668      0.70115      .   S
    C157   O669      0.69502      .   S
    C149   O669      0.69502      .   S
    C265   O670      0.69501      .   S
    C257   O670      0.69501      .   S
    C264   O671      0.69463      .   S
    C256   O671      0.69463      .   S
    C259   O672      0.54471      .   S
    C81    O672      0.54471      .   S
    C259   O673      0.70250      .   S
    C251   O673      0.70250      .   S
    C258   O674      0.54469      .   S
    C80    O674      0.54469      .   S
    C258   O675      0.70253      .   S
    C250   O675      0.70253      .   S
    C151   O676      0.54470      .   S
    C17    O676      0.54470      .   S
    C151   O677      0.70252      .   S
    C143   O677      0.70252      .   S
    C150   O678      0.54468      .   S
    C16    O678      0.54468      .   S
    C150   O679      0.70247      .   S
    C142   O679      0.70247      .   S
    C256   O680      0.70537      .   S
    C250   O680      0.70537      .   S
    C256   O681      0.54535      .   S
    C78    O681      0.54535      .   S
    C148   O682      0.70527      .   S
    C142   O682      0.70527      .   S
    C148   O683      0.54522      .   S
    C14    O683      0.54522      .   S
    C257   O684      0.70523      .   S
    C251   O684      0.70523      .   S
    C257   O685      0.54519      .   S
    C79    O685      0.54519      .   S
    C149   O686      0.70522      .   S
    C143   O686      0.70522      .   S
    C149   O687      0.54513      .   S
    C15    O687      0.54513      .   S
    C251   O688      0.74015      .   S
    C245   O688      0.74015      .   S
    C142   O689      0.74014      .   S
    C136   O689      0.74014      .   S
    C143   O690      0.74016      .   S
    C137   O690      0.74016      .   S
    C250   O691      0.74014      .   S
    C244   O691      0.74014      .   S
    C245   O692      0.70149      .   S
    C261   O692      0.70149      .   S
    C245   O693      0.70186      .   S
    C267   O693      0.70186      .   S
    C137   O694      0.70149      .   S
    C153   O694      0.70149      .   S
    C137   O695      0.70186      .   S
    C159   O695      0.70186      .   S
    C136   O696      0.70151      .   S
    C152   O696      0.70151      .   S
    C136   O697      0.70184      .   S
    C158   O697      0.70184      .   S
    C244   O698      0.70149      .   S
    C260   O698      0.70149      .   S
    C244   O699      0.70186      .   S
    C266   O699      0.70186      .   S
    C83    O700      0.54454      .   S
    C261   O700      0.54454      .   S
    C82    O701      0.54455      .   S
    C260   O701      0.54455      .   S
    C19    O702      0.54454      .   S
    C153   O702      0.54454      .   S
    C18    O703      0.54453      .   S
    C152   O703      0.54453      .   S
    C87    O704      0.54483      .   S
    C267   O704      0.54483      .   S
    C23    O705      0.54483      .   S
    C159   O705      0.54483      .   S
    C22    O706      0.54484      .   S
    C158   O706      0.54484      .   S
    C86    O707      0.54482      .   S
    C266   O707      0.54482      .   S
    C153   O708      0.69962      .   S
    C154   O708      0.69962      .   S
    C152   O709      0.69958      .   S
    C155   O709      0.69958  1_655   S
    C260   O710      0.69961      .   S
    C262   O710      0.69961      .   S
    C261   O711      0.69961      .   S
    C263   O711      0.69961      .   S
    C159   O712      0.70303      .   S
    C161   O712      0.70303      .   S
    C158   O713      0.70303      .   S
    C160   O713      0.70303      .   S
    C267   O714      0.70303      .   S
    C269   O714      0.70303      .   S
    C266   O715      0.70303      .   S
    C268   O715      0.70303      .   S
    C30    O716      0.54521      .   S
    C176   O716      0.54521      .   S
    C94    O717      0.54524      .   S
    C284   O717      0.54524      .   S
    C31    O718      0.54523      .   S
    C177   O718      0.54523      .   S
    C95    O719      0.54524      .   S
    C285   O719      0.54524      .   S
    C92    O720      0.54455      .   S
    C282   O720      0.54455      .   S
    C93    O721      0.54449      .   S
    C283   O721      0.54449      .   S
    C29    O722      0.54447      .   S
    C175   O722      0.54447      .   S
    C28    O723      0.54449      .   S
    C174   O723      0.54449      .   S
    C35    O724      0.54500      .   S
    C181   O724      0.54500      .   S
    C34    O725      0.54501      .   S
    C180   O725      0.54501      .   S
    C98    O726      0.54495      .   S
    C288   O726      0.54495      .   S
    C99    O727      0.54494      .   S
    C289   O727      0.54494      .   S
    C284   O728      0.69506  1_545   S
    C288   O728      0.69506      .   S
    C284   O729      0.70331      .   S
    C280   O729      0.70331      .   S
    C177   O730      0.69516      .   S
    C181   O730      0.69516      .   S
    C177   O731      0.70323      .   S
    C173   O731      0.70323      .   S
    C176   O732      0.69520      .   S
    C180   O732      0.69520      .   S
    C176   O733      0.70331      .   S
    C172   O733      0.70331      .   S
    C285   O734      0.69506  1_545   S
    C289   O734      0.69506      .   S
    C285   O735      0.70317      .   S
    C281   O735      0.70317      .   S
    C155   O736      0.73800      .   S
    C173   O736      0.73800      .   S
    C155   O737      0.69988      .   S
    C146   O737      0.69988      .   S
    C154   O738      0.73804      .   S
    C172   O738      0.73804      .   S
    C154   O739      0.70047      .   S
    C147   O739      0.70047      .   S
    C262   O740      0.73803      .   S
    C280   O740      0.73803      .   S
    C262   O741      0.70040      .   S
    C254   O741      0.70040      .   S
    C263   O742      0.73794      .   S
    C281   O742      0.73794      .   S
    C263   O743      0.70047      .   S
    C255   O743      0.70047      .   S
    C268   O744      0.70083      .   S
    C254   O744      0.70083      .   S
    C268   O745      0.73996      .   S
    C270   O745      0.73996      .   S
    C269   O746      0.70089      .   S
    C255   O746      0.70089      .   S
    C269   O747      0.74003      .   S
    C271   O747      0.74003      .   S
    C160   O748      0.70045      .   S
    C146   O748      0.70045  1_655   S
    C160   O749      0.74003      .   S
    C162   O749      0.74003      .   S
    C161   O750      0.70089      .   S
    C147   O750      0.70089      .   S
    C161   O751      0.74004      .   S
    C163   O751      0.74004      .   S
    C181   O752      0.70049      .   S
    C187   O752      0.70049      .   S
    C289   O753      0.70051      .   S
    C295   O753      0.70051      .   S
    C288   O754      0.70051      .   S
    C294   O754      0.70051      .   S
    C180   O755      0.70038      .   S
    C186   O755      0.70038      .   S
    C282   O756      0.70272      .   S
    C270   O756      0.70272      .   S
    C282   O757      0.69427      .   S
    C290   O757      0.69427      .   S
    C283   O758      0.70274      .   S
    C271   O758      0.70274      .   S
    C283   O759      0.69423      .   S
    C291   O759      0.69423      .   S
    C174   O760      0.70273      .   S
    C163   O760      0.70273      .   S
    C174   O761      0.69422      .   S
    C182   O761      0.69422      .   S
    C175   O762      0.70268      .   S
    C162   O762      0.70268  1_455   S
    C175   O763      0.69422      .   S
    C183   O763      0.69422      .   S
    C281   O764      0.70238      .   S
    C287   O764      0.70238      .   S
    C173   O765      0.70219      .   S
    C178   O765      0.70219  1_455   S
    C280   O766      0.70214      .   S
    C286   O766      0.70214      .   S
    C172   O767      0.70212      .   S
    C179   O767      0.70212      .   S
    C36    O768      0.54436      .   S
    C182   O768      0.54436      .   S
    C101   O769      0.54415      .   S
    C291   O769      0.54415      .   S
    C100   O770      0.54414      .   S
    C290   O770      0.54414      .   S
    C37    O771      0.54414      .   S
    C183   O771      0.54414      .   S
    C146   O772      0.54504      .   S
    C13    O772      0.54504      .   S
    C254   O773      0.54420      .   S
    C76    O773      0.54420      .   S
    C255   O774      0.54407      .   S
    C77    O774      0.54407      .   S
    C147   O775      0.54407      .   S
    C12    O775      0.54407      .   S
    C270   O776      0.70463      .   S
    C248   O776      0.70463      .   S
    C271   O777      0.70455      .   S
    C249   O777      0.70455      .   S
    C162   O778      0.70454      .   S
    C140   O778      0.70454      .   S
    C163   O779      0.70454      .   S
    C141   O779      0.70454      .   S
    C183   O780      0.70129      .   S
    C170   O780      0.70129  1_455   S
    C290   O781      0.70122      .   S
    C278   O781      0.70122      .   S
    C182   O782      0.70135      .   S
    C171   O782      0.70135      .   S
    C291   O783      0.70136      .   S
    C279   O783      0.70136      .   S
    C187   O784      0.74736      .   S
    C189   O784      0.74736      .   S
    C187   O785      0.70028      .   S
    C184   O785      0.70028      .   S
    C186   O786      0.74737      .   S
    C188   O786      0.74737      .   S
    C186   O787      0.70027      .   S
    C185   O787      0.70027      .   S
    C295   O788      0.74736      .   S
    C297   O788      0.74736      .   S
    C295   O789      0.70036      .   S
    C293   O789      0.70036      .   S
    C294   O790      0.74735      .   S
    C296   O790      0.74735      .   S
    C294   O791      0.70036      .   S
    C292   O791      0.70036      .   S
    C352   O792      0.63785      .   S
    C188   O792      0.63785      .   S
    C353   O793      0.63785      .   S
    C189   O793      0.63785      .   S
    C376   O794      0.63786      .   S
    C296   O794      0.63786      .   S
    C377   O795      0.63786      .   S
    C297   O795      0.63786      .   S
    C179   O796      0.69507      .   S
    C185   O796      0.69507      .   S
    C179   O797      0.54453      .   S
    C33    O797      0.54453      .   S
    C178   O798      0.69512  1_455   S
    C184   O798      0.69512      .   S
    C178   O799      0.54479      .   S
    C32    O799      0.54479      .   S
    C287   O800      0.69503      .   S
    C293   O800      0.69503  1_565   S
    C287   O801      0.54481      .   S
    C97    O801      0.54481      .   S
    C286   O802      0.69503      .   S
    C292   O802      0.69503  1_565   S
    C286   O803      0.54481      .   S
    C96    O803      0.54481      .   S
    C188   O804      0.64046      .   S
    C355   O804      0.64046      .   S
    C189   O805      0.64000      .   S
    C354   O805      0.64000  1_455   S
    C296   O806      0.64044      .   S
    C378   O806      0.64044      .   S
    C297   O807      0.64045      .   S
    C379   O807      0.64045      .   S
    C248   O808      0.54504      .   S
    C74    O808      0.54504      .   S
    C248   O809      0.69614      .   S
    C246   O809      0.69614      .   S
    C249   O810      0.54543      .   S
    C75    O810      0.54543      .   S
    C249   O811      0.69613      .   S
    C247   O811      0.69613      .   S
    C141   O812      0.54543      .   S
    C11    O812      0.54543      .   S
    C141   O813      0.69612      .   S
    C139   O813      0.69612      .   S
    C140   O814      0.54544      .   S
    C10    O814      0.54544      .   S
    C140   O815      0.69618      .   S
    C138   O815      0.69618      .   S
    C278   O816      0.70238      .   S
    C246   O816      0.70238      .   S
    C278   O817      0.74124      .   S
    C276   O817      0.74124      .   S
    C279   O818      0.70232      .   S
    C247   O818      0.70232      .   S
    C279   O819      0.74119      .   S
    C277   O819      0.74119      .   S
    C171   O820      0.70232      .   S
    C139   O820      0.70232      .   S
    C171   O821      0.74110      .   S
    C169   O821      0.74110  1_565   S
    C170   O822      0.70238      .   S
    C138   O822      0.70238      .   S
    C170   O823      0.74113      .   S
    C168   O823      0.74113  1_565   S
    C380   O824      0.62019      .   S
    C276   O824      0.62019      .   S
    C381   O825      0.62014      .   S
    C277   O825      0.62014      .   S
    C357   O826      0.62010      .   S
    C168   O826      0.62010  1_455   S
    C356   O827      0.62014      .   S
    C169   O827      0.62014      .   S
    C354   O828      1.37494      .   S
    C0     O828      1.37494      .   S
    C378   O829      1.37480      .   S
    C4     O829      1.37480      .   S
    C379   O830      1.37481      .   S
    C5     O830      1.37481      .   S
    C355   O831      1.37480      .   S
    C1     O831      1.37480      .   S
    C352   O832      1.40856      .   S
    C0     O832      1.40856      .   S
    C352   O833      1.46438      .   S
    C4     O833      1.46438      .   S
    C353   O834      1.40858      .   S
    C1     O834      1.40858      .   S
    C353   O835      1.46442      .   S
    C5     O835      1.46442      .   S
    C354   O836      1.38955  1_455   S
    C5     O836      1.38955      .   S
    C355   O837      1.38949      .   S
    C4     O837      1.38949      .   S
    C356   O838      1.38423      .   S
    C4     O838      1.38423      .   S
    C357   O839      1.38421      .   S
    C5     O839      1.38421      .   S
    C358   O840      1.39563      .   S
    C2     O840      1.39563      .   S
    C359   O841      1.39559      .   S
    C3     O841      1.39559      .   S
    C360   O842      1.45174      .   S
    C2     O842      1.45174      .   S
    C361   O843      1.45161      .   S
    C3     O843      1.45161      .   S
    C364   O844      1.40862      .   S
    C2     O844      1.40862      .   S
    C364   O845      1.46441      .   S
    C6     O845      1.46441      .   S
    C365   O846      1.40856      .   S
    C3     O846      1.40856      .   S
    C365   O847      1.46432      .   S
    C7     O847      1.46432      .   S
    C366   O848      1.38951      .   S
    C7     O848      1.38951      .   S
    C367   O849      1.38941  1_655   S
    C6     O849      1.38941      .   S
    C368   O850      1.38415      .   S
    C6     O850      1.38415      .   S
    C369   O851      1.38428      .   S
    C7     O851      1.38428      .   S
    C370   O852      1.39580      .   S
    C0     O852      1.39580  1_556   S
    C371   O853      1.39575      .   S
    C1     O853      1.39575  1_556   S
    C372   O854      1.45175      .   S
    C0     O854      1.45175  1_556   S
    C373   O855      1.45185      .   S
    C1     O855      1.45185  1_556   S
    C376   O856      1.46440      .   S
    C0     O856      1.46440      .   S
    C376   O857      1.40843      .   S
    C5     O857      1.40843  1_655   S
    C377   O858      1.46443      .   S
    C1     O858      1.46443      .   S
    C377   O859      1.40856      .   S
    C4     O859      1.40856      .   S
    C378   O860      1.38947      .   S
    C0     O860      1.38947      .   S
    C379   O861      1.38948      .   S
    C1     O861      1.38948      .   S
    C380   O862      1.38420      .   S
    C0     O862      1.38420      .   S
    C381   O863      1.38422      .   S
    C1     O863      1.38422      .   S
    C382   O864      1.39565      .   S
    C7     O864      1.39565      .   S
    C383   O865      1.39566  1_655   S
    C6     O865      1.39566      .   S
    C384   O866      1.45169      .   S
    C7     O866      1.45169      .   S
    C385   O867      1.45160      .   S
    C6     O867      1.45160  1_455   S
    C388   O868      1.46447      .   S
    C2     O868      1.46447      .   S
    C388   O869      1.40859      .   S
    C7     O869      1.40859      .   S
    C389   O870      1.46423      .   S
    C3     O870      1.46423      .   S
    C389   O871      1.40843      .   S
    C6     O871      1.40843  1_455   S
    C390   O872      1.38950      .   S
    C2     O872      1.38950      .   S
    C391   O873      1.38934      .   S
    C3     O873      1.38934      .   S
    C392   O874      1.38424      .   S
    C2     O874      1.38424      .   S
    C393   O875      1.38397      .   S
    C3     O875      1.38397      .   S
    C394   O876      1.39567  1_455   S
    C5     O876      1.39567  1_556   S
    C395   O877      1.39568      .   S
    C4     O877      1.39568  1_556   S
    C396   O878      1.45174      .   S
    C5     O878      1.45174  1_656   S
    C397   O879      1.45189      .   S
    C4     O879      1.45189  1_556   S
