# CIF file generated by openbabel 2.4.90, see http://openbabel.sf.net
data_I
_chemical_name_common ''
_cell_length_a 23.285
_cell_length_b 13.976
_cell_length_c 15.782
_cell_angle_alpha 96.063
_cell_angle_beta 89.996
_cell_angle_gamma 89.977
_space_group_name_H-M_alt 'P 1'
_space_group_name_Hall 'P 1'
loop_
    _symmetry_equiv_pos_as_xyz
    x,y,z
loop_
    _atom_site_label
    _atom_site_type_symbol
    _atom_site_fract_x
    _atom_site_fract_y
    _atom_site_fract_z
    _atom_site_occupancy
    H0      H    0.20287   0.16718   0.14822   1.000
    H1      H    0.70286   0.16718   0.14822   1.000
    H2      H    0.26799   0.16904   0.27361   1.000
    H3      H    0.76798   0.16904   0.27361   1.000
    H4      H    0.18593   0.42744   0.38651   1.000
    H5      H    0.68592   0.42744   0.38651   1.000
    H6      H    0.12494   0.43049   0.25632   1.000
    H7      H    0.62493   0.43049   0.25632   1.000
    H8      H    0.40346   0.29839   0.49260   1.000
    H9      H    0.90346   0.29839   0.49260   1.000
    H10     H    0.19159   0.29489   0.49589   1.000
    H11     H    0.69158   0.29489   0.49589   1.000
    H12     H    0.40989   0.42268   0.62747   1.000
    H13     H    0.90988   0.42268   0.62747   1.000
    H14     H    0.47056   0.42359   0.75784   1.000
    H15     H    0.97055   0.42359   0.75784   1.000
    H16     H    0.39049   0.16162   0.81570   1.000
    H17     H    0.89048   0.16161   0.81570   1.000
    H18     H    0.32584   0.16537   0.69028   1.000
    H19     H    0.82583   0.16537   0.69028   1.000
    H20     H    0.41023   0.17476   0.35835   1.000
    H21     H    0.91023   0.17476   0.35835   1.000
    H22     H    0.47079   0.17908   0.22844   1.000
    H23     H    0.97078   0.17908   0.22844   1.000
    H24     H    0.38420   0.43614   0.17123   1.000
    H25     H    0.88420   0.43614   0.17123   1.000
    H26     H    0.32139   0.42905   0.29740   1.000
    H27     H    0.82139   0.42904   0.29740   1.000
    H28     H    0.19109   0.15984   0.60846   1.000
    H29     H    0.69108   0.15984   0.60846   1.000
    H30     H    0.13099   0.15889   0.73943   1.000
    H31     H    0.63098   0.15889   0.73943   1.000
    H32     H    0.20472   0.42944   0.83953   1.000
    H33     H    0.70471   0.42944   0.83953   1.000
    H34     H    0.26760   0.42719   0.71298   1.000
    H35     H    0.76759   0.42719   0.71290   1.000
    H36     H    0.13760   0.55717   0.00000   1.000
    H37     H    0.63760   0.55717   0.00000   1.000
    H38     H    0.14051   0.73402   0.01287   1.000
    H39     H    0.64050   0.73402   0.01287   1.000
    H40     H    0.45528   0.72824   0.99034   1.000
    H41     H    0.95528   0.72824   0.99034   1.000
    H42     H    0.45978   0.55175   0.99514   1.000
    H43     H    0.95977   0.55175   0.99514   1.000
    H44     H    0.12275   0.85209   0.91352   1.000
    H45     H    0.62274   0.85209   0.91352   1.000
    H46     H    0.11782   0.03075   0.90750   1.000
    H47     H    0.61782   0.03075   0.90753   1.000
    H48     H    0.47390   0.05614   0.06132   1.000
    H49     H    0.97390   0.05614   0.06132   1.000
    H50     H    0.47069   0.87804   0.07173   1.000
    H51     H    0.97068   0.87804   0.07173   1.000
    H52     H    0.45281   0.83276   0.85176   1.000
    H53     H    0.95280   0.83276   0.85176   1.000
    H54     H    0.01794   0.83089   0.72635   1.000
    H55     H    0.51793   0.83089   0.72635   1.000
    H56     H    0.43596   0.57255   0.61343   1.000
    H57     H    0.93595   0.57255   0.61343   1.000
    H58     H    0.37496   0.56951   0.74363   1.000
    H59     H    0.87495   0.56951   0.74363   1.000
    H60     H    0.15346   0.70163   0.50727   1.000
    H61     H    0.65345   0.70163   0.50727   1.000
    H62     H    0.44158   0.70505   0.50407   1.000
    H63     H    0.94157   0.70505   0.50407   1.000
    H64     H    0.15994   0.57731   0.37247   1.000
    H65     H    0.65993   0.57731   0.37247   1.000
    H66     H    0.22061   0.57642   0.24208   1.000
    H67     H    0.72060   0.57642   0.24208   1.000
    H68     H    0.14045   0.83844   0.18430   1.000
    H69     H    0.64044   0.83844   0.18430   1.000
    H70     H    0.07579   0.83467   0.30972   1.000
    H71     H    0.57578   0.83467   0.30972   1.000
    H72     H    0.16018   0.82522   0.64158   1.000
    H73     H    0.66017   0.82522   0.64150   1.000
    H74     H    0.22073   0.82092   0.77148   1.000
    H75     H    0.72072   0.82091   0.77148   1.000
    H76     H    0.13424   0.56391   0.82876   1.000
    H77     H    0.63423   0.56391   0.82876   1.000
    H78     H    0.07144   0.57098   0.70260   1.000
    H79     H    0.57143   0.57097   0.70260   1.000
    H80     H    0.44105   0.84017   0.39146   1.000
    H81     H    0.94105   0.84017   0.39146   1.000
    H82     H    0.38096   0.84111   0.26050   1.000
    H83     H    0.88095   0.84111   0.26050   1.000
    H84     H    0.45475   0.57048   0.16046   1.000
    H85     H    0.95475   0.57048   0.16046   1.000
    H86     H    0.01763   0.57273   0.28700   1.000
    H87     H    0.51762   0.57273   0.28700   1.000
    H88     H    0.38763   0.44269   0.98206   1.000
    H89     H    0.88762   0.44269   0.98206   1.000
    H90     H    0.39053   0.26584   0.98711   1.000
    H91     H    0.89052   0.26584   0.98711   1.000
    C92     C    0.41016   0.70085   0.80565   1.000
    H93     H    0.20529   0.27190   0.00959   1.000
    H94     H    0.70529   0.27190   0.00959   1.000
    H95     H    0.20982   0.44837   0.00000   1.000
    H96     H    0.70981   0.44837   0.00000   1.000
    H97     H    0.37273   0.14778   0.08644   1.000
    H98     H    0.87272   0.14778   0.08644   1.000
    H99     H    0.36777   0.96913   0.09244   1.000
    H100    H    0.86777   0.96913   0.09240   1.000
    H101    H    0.22389   0.94397   0.93864   1.000
    H102    H    0.72388   0.94397   0.93864   1.000
    H103    H    0.22071   0.12207   0.92820   1.000
    H104    H    0.72070   0.12207   0.92822   1.000
    C105    C    0.16017   0.29912   0.19431   1.000
    C106    C    0.66017   0.29912   0.19431   1.000
    C107    C    0.20035   0.22523   0.19988   1.000
    C108    C    0.70034   0.22523   0.19988   1.000
    C109    C    0.23632   0.22601   0.27038   1.000
    C110    C    0.73631   0.22601   0.27038   1.000
    C111    C    0.23124   0.29856   0.33874   1.000
    C112    C    0.73123   0.29856   0.33874   1.000
    C113    C    0.19008   0.37116   0.33347   1.000
    C114    C    0.69007   0.37116   0.33347   1.000
    C115    C    0.15573   0.37274   0.26149   1.000
    C116    C    0.65573   0.37274   0.26149   1.000
    C117    C    0.26659   0.29807   0.41692   1.000
    C118    C    0.76658   0.29807   0.41692   1.000
    C119    C    0.41440   0.70678   0.20169   1.000
    C120    C    0.91439   0.70678   0.20169   1.000
    C121    C    0.45270   0.63080   0.21001   1.000
    C122    C    0.95269   0.63080   0.21001   1.000
    C123    C    0.48769   0.63178   0.28164   1.000
    C124    C    0.32727   0.29872   0.41592   1.000
    C125    C    0.82726   0.29872   0.41592   1.000
    C126    C    0.35661   0.29757   0.49336   1.000
    C127    C    0.85660   0.29757   0.49336   1.000
    C128    C    0.32847   0.29552   0.57166   1.000
    C129    C    0.82847   0.29552   0.57166   1.000
    C130    C    0.26780   0.29420   0.57247   1.000
    C131    C    0.76780   0.29420   0.57247   1.000
    C132    C    0.23844   0.29564   0.49515   1.000
    C133    C    0.73843   0.29564   0.49515   1.000
    C134    C    0.36366   0.29430   0.64992   1.000
    C135    C    0.86366   0.29430   0.64992   1.000
    C136    C    0.40527   0.36597   0.66935   1.000
    C137    C    0.90526   0.36597   0.66935   1.000
    C138    C    0.43945   0.36642   0.74164   1.000
    C139    C    0.93944   0.36642   0.74164   1.000
    C140    C    0.43440   0.29253   0.79468   1.000
    C141    C    0.93440   0.29253   0.79468   1.000
    C142    C    0.39366   0.21966   0.77495   1.000
    C143    C    0.89365   0.21966   0.77495   1.000
    C144    C    0.35793   0.22155   0.70442   1.000
    C145    C    0.85792   0.22155   0.70442   1.000
    C146    C    0.36148   0.30138   0.33684   1.000
    C147    C    0.86147   0.30138   0.33684   1.000
    C148    C    0.40416   0.23153   0.31677   1.000
    C149    C    0.90415   0.23153   0.31677   1.000
    C150    C    0.43794   0.23356   0.24434   1.000
    C151    C    0.93793   0.23356   0.24434   1.000
    C152    C    0.43111   0.30717   0.19122   1.000
    C153    C    0.93110   0.30717   0.19122   1.000
    C154    C    0.38917   0.37800   0.21150   1.000
    C155    C    0.88917   0.37800   0.21150   1.000
    C156    C    0.35416   0.37409   0.28264   1.000
    C157    C    0.85415   0.37409   0.28264   1.000
    C158    C    0.23367   0.29324   0.65184   1.000
    C159    C    0.73367   0.29324   0.65184   1.000
    C160    C    0.19458   0.21820   0.65987   1.000
    C161    C    0.69457   0.21820   0.65987   1.000
    C162    C    0.16104   0.21733   0.73270   1.000
    C163    C    0.66103   0.21733   0.73275   1.000
    C164    C    0.16440   0.29318   0.79827   1.000
    C165    C    0.66440   0.29318   0.79827   1.000
    C166    C    0.20269   0.36913   0.78996   1.000
    C167    C    0.70268   0.36913   0.78996   1.000
    C168    C    0.23768   0.36816   0.71833   1.000
    C169    C    0.73767   0.36816   0.71833   1.000
    C170    C    0.09821   0.59749   0.01134   1.000
    C171    C    0.59820   0.59749   0.01134   1.000
    C172    C    0.09959   0.69624   0.00769   1.000
    C173    C    0.59958   0.69624   0.00769   1.000
    C174    C    0.04792   0.74582   0.99969   1.000
    C175    C    0.54791   0.74582   0.99969   1.000
    C176    C    0.49662   0.69329   0.99640   1.000
    C177    C    0.99662   0.69329   0.99640   1.000
    C178    C    0.99887   0.59449   0.99872   1.000
    C179    C    0.49887   0.59448   0.99872   1.000
    C180    C    0.04726   0.85051   0.99435   1.000
    C181    C    0.54725   0.85051   0.99435   1.000
    C182    C    0.08925   0.89469   0.94785   1.000
    C183    C    0.58924   0.89469   0.94785   1.000
    C184    C    0.08685   0.99340   0.94402   1.000
    C185    C    0.58684   0.99340   0.94400   1.000
    C186    C    0.00537   0.00733   0.02914   1.000
    C187    C    0.50536   0.00733   0.02914   1.000
    C188    C    0.00422   0.90895   0.03486   1.000
    C189    C    0.50421   0.90895   0.03486   1.000
    C190    C    0.91015   0.70085   0.80565   1.000
    C191    C    0.45031   0.77472   0.80008   1.000
    C192    C    0.95030   0.77472   0.80008   1.000
    C193    C    0.48628   0.77393   0.72959   1.000
    C194    C    0.98627   0.77393   0.72959   1.000
    C195    C    0.48122   0.70139   0.66122   1.000
    C196    C    0.98122   0.70139   0.66122   1.000
    C197    C    0.44008   0.62881   0.66648   1.000
    C198    C    0.94007   0.62881   0.66648   1.000
    C199    C    0.40574   0.62724   0.73840   1.000
    C200    C    0.90573   0.62724   0.73846   1.000
    C201    C    0.01659   0.70189   0.58300   1.000
    C202    C    0.51658   0.70189   0.58303   1.000
    C203    C    0.07727   0.70127   0.58404   1.000
    C204    C    0.57726   0.70127   0.58404   1.000
    C205    C    0.10661   0.70243   0.50659   1.000
    C206    C    0.60660   0.70243   0.50659   1.000
    C207    C    0.07847   0.70447   0.42830   1.000
    C208    C    0.57846   0.70447   0.42830   1.000
    C209    C    0.01780   0.70577   0.42748   1.000
    C210    C    0.51779   0.70577   0.42748   1.000
    C211    C    0.48843   0.70431   0.50481   1.000
    C212    C    0.98842   0.70431   0.50481   1.000
    C213    C    0.11366   0.70571   0.35004   1.000
    C214    C    0.61366   0.70571   0.35004   1.000
    C215    C    0.15529   0.63403   0.33059   1.000
    C216    C    0.65529   0.63403   0.33059   1.000
    C217    C    0.18948   0.63360   0.25830   1.000
    C218    C    0.68947   0.63360   0.25830   1.000
    C219    C    0.18440   0.70751   0.20520   1.000
    C220    C    0.68440   0.70751   0.20528   1.000
    C221    C    0.14363   0.78038   0.22503   1.000
    C222    C    0.64363   0.78038   0.22503   1.000
    C223    C    0.10790   0.77848   0.29556   1.000
    C224    C    0.60789   0.77848   0.29556   1.000
    C225    C    0.11147   0.69862   0.66311   1.000
    C226    C    0.61146   0.69862   0.66311   1.000
    C227    C    0.15413   0.76846   0.68310   1.000
    C228    C    0.65412   0.76846   0.68310   1.000
    C229    C    0.18790   0.76645   0.75560   1.000
    C230    C    0.68790   0.76644   0.75560   1.000
    C231    C    0.18110   0.69285   0.80874   1.000
    C232    C    0.68109   0.69285   0.80874   1.000
    C233    C    0.13919   0.62203   0.78848   1.000
    C234    C    0.63919   0.62203   0.78848   1.000
    C235    C    0.10418   0.62593   0.71734   1.000
    C236    C    0.60418   0.62593   0.71734   1.000
    C237    C    0.48367   0.70672   0.34811   1.000
    C238    C    0.98366   0.70672   0.34811   1.000
    C239    C    0.44456   0.78178   0.34007   1.000
    C240    C    0.94455   0.78178   0.34007   1.000
    C241    C    0.41102   0.78265   0.26719   1.000
    C242    C    0.91101   0.78265   0.26719   1.000
    C243    C    0.98768   0.63178   0.28164   1.000
    C244    C    0.34824   0.40243   0.98864   1.000
    C245    C    0.84823   0.40243   0.98864   1.000
    C246    C    0.34961   0.30368   0.99229   1.000
    C247    C    0.84960   0.30368   0.99229   1.000
    C248    C    0.29793   0.25418   0.00000   1.000
    C249    C    0.79792   0.25417   0.00000   1.000
    C250    C    0.24665   0.30678   0.00000   1.000
    C251    C    0.74664   0.30678   0.00000   1.000
    C252    C    0.24890   0.40558   0.00000   1.000
    C253    C    0.74889   0.40558   0.00000   1.000
    C254    C    0.29726   0.14948   0.00000   1.000
    C255    C    0.79726   0.14948   0.00000   1.000
    C256    C    0.33923   0.10523   0.05211   1.000
    C257    C    0.83922   0.10523   0.05211   1.000
    C258    C    0.33681   0.00000   0.05594   1.000
    C259    C    0.83680   0.00000   0.05594   1.000
    C260    C    0.25536   0.99273   0.97082   1.000
    C261    C    0.75535   0.99273   0.97082   1.000
    C262    C    0.25422   0.09111   0.96510   1.000
    C263    C    0.75421   0.09111   0.96510   1.000
    N264    N    0.04876   0.54693   0.00602   1.000
    N265    N    0.54876   0.54693   0.00602   1.000
    N266    N    0.04595   0.04932   0.98451   1.000
    N267    N    0.54594   0.04931   0.98450   1.000
    N268    N    0.29879   0.45306   0.99394   1.000
    N269    N    0.79879   0.45306   0.99394   1.000
    N270    N    0.29591   0.95068   0.01546   1.000
    N271    N    0.79590   0.95068   0.01546   1.000
loop_
    _geom_bond_atom_site_label_1
    _geom_bond_atom_site_label_2
    _geom_bond_distance
    _geom_bond_site_symmetry_2
    _ccdc_geom_bond_type
    C248   C254      1.46326      .   S
    C248   C250      1.40207      .   S
    C248   C246      1.39996  1_554   S
    H36    C170      1.08130      .   S
    H37    C171      1.08132      .   S
    C255   C249      1.46326      .   S
    C255   C257      1.45633      .   S
    C255   C263      1.37081  1_554   S
    C254   C256      1.45635      .   S
    C254   C262      1.37082  1_554   S
    C253   C251      1.38180      .   S
    C253   H96       1.08871      .   S
    C253   N269      1.34662  1_554   S
    C252   C250      1.38180      .   S
    C252   H95       1.08871      .   S
    C252   N268      1.34661  1_554   S
    C251   C249      1.40207      .   S
    C251   H94       1.09716      .   S
    C250   H93       1.09717      .   S
    C249   C247      1.39997  1_554   S
    N265   C171      1.34914      .   S
    N265   C179      1.34910  1_554   S
    N264   C170      1.34914      .   S
    N264   C178      1.34912  1_454   S
    C172   C170      1.38771      .   S
    C172   H38       1.08851      .   S
    C172   C174      1.40055  1_554   S
    C173   C171      1.38770      .   S
    C173   H39       1.08850      .   S
    C173   C175      1.40056  1_554   S
    N270   C258      1.30297  1_565   S
    N270   C260      1.34923  1_554   S
    N271   C259      1.30297  1_565   S
    N271   C261      1.34923  1_554   S
    C186   C188      1.38769  1_545   S
    C186   H49       1.08942  1_455   S
    C186   N266      1.34935  1_554   S
    C187   C189      1.38770  1_545   S
    C187   H48       1.08917      .   S
    C187   N267      1.34943  1_554   S
    C189   H50       1.08990      .   S
    C189   C181      1.40330  1_554   S
    C188   H51       1.09015  1_455   S
    C188   C180      1.40329  1_554   S
    C256   C258      1.47943      .   S
    C256   H97       1.08991      .   S
    C257   C259      1.47943      .   S
    C257   H98       1.08992      .   S
    C259   H100      1.04375  1_545   S
    C258   H99       1.04412  1_545   S
    H0     C107      1.08931      .   S
    H1     C108      1.08931      .   S
    H85    C122      1.08868      .   S
    H84    C121      1.08867      .   S
    H25    C155      1.08925      .   S
    H24    C154      1.08927      .   S
    H68    C221      1.08960      .   S
    H69    C222      1.08962      .   S
    C152   C154      1.40288      .   S
    C152   C150      1.40309      .   S
    C153   C155      1.40288      .   S
    C153   C151      1.40310      .   S
    C106   C108      1.40282      .   S
    C106   C116      1.40104      .   S
    C105   C107      1.40279      .   S
    C105   C115      1.40104      .   S
    C108   C110      1.39175      .   S
    C107   C109      1.39177      .   S
    C119   C121      1.40316      .   S
    C119   C241      1.40268      .   S
    C120   C122      1.40316      .   S
    C120   C242      1.40267      .   S
    C219   C221      1.40301      .   S
    C219   C217      1.40214      .   S
    C220   C222      1.40282      .   S
    C220   C218      1.40130      .   S
    C122   C243      1.39240      .   S
    C121   C123      1.39240      .   S
    C155   C157      1.39323      .   S
    C154   C156      1.39323      .   S
    C221   C223      1.39223      .   S
    C222   C224      1.39223      .   S
    H22    C150      1.08938      .   S
    H23    C151      1.08939      .   S
    H66    C217      1.08898      .   S
    H67    C218      1.08897      .   S
    C151   C149      1.39025      .   S
    C150   C148      1.39023      .   S
    H7     C116      1.08889      .   S
    H6     C115      1.08889      .   S
    C217   C215      1.39058      .   S
    C218   C216      1.39058      .   S
    H83    C242      1.08930      .   S
    H82    C241      1.08931      .   S
    C115   C113      1.39131      .   S
    C116   C114      1.39130      .   S
    C241   C239      1.39134      .   S
    C242   C240      1.39134      .   S
    C109   H2        1.09024      .   S
    C109   C111      1.40530      .   S
    C110   H3        1.09024      .   S
    C110   C112      1.40530      .   S
    C123   H87       1.09012      .   S
    C123   C237      1.40503      .   S
    C243   H86       1.09036  1_655   S
    C243   C238      1.40501      .   S
    C157   H27       1.08994      .   S
    C157   C147      1.40604      .   S
    C156   H26       1.08994      .   S
    C156   C146      1.40604      .   S
    C223   H70       1.09002      .   S
    C223   C213      1.40580      .   S
    C224   H71       1.09003      .   S
    C224   C214      1.40579      .   S
    C148   C146      1.40531      .   S
    C148   H20       1.09097      .   S
    C149   C147      1.40533      .   S
    C149   H21       1.09096      .   S
    C215   C213      1.40414      .   S
    C215   H64       1.08975      .   S
    C216   C214      1.40413      .   S
    C216   H65       1.08976      .   S
    C114   C112      1.40436      .   S
    C114   H5        1.09061      .   S
    C113   C111      1.40436      .   S
    C113   H4        1.09061      .   S
    C147   C125      1.48424      .   S
    C146   C124      1.48426      .   S
    C111   C117      1.48388      .   S
    C112   C118      1.48388      .   S
    C239   C237      1.40477      .   S
    C239   H80       1.09107      .   S
    C240   C238      1.40478      .   S
    C240   H81       1.09106      .   S
    C237   C210      1.48468      .   S
    C238   C209      1.48489  1_655   S
    C213   C207      1.48379      .   S
    C214   C208      1.48381      .   S
    C125   C118      1.41309      .   S
    C125   C127      1.40173      .   S
    C124   C117      1.41309      .   S
    C124   C126      1.40173      .   S
    C117   C132      1.40136      .   S
    C118   C133      1.40136      .   S
    C210   C208      1.41289      .   S
    C210   C211      1.40087      .   S
    C209   C207      1.41289      .   S
    C209   C212      1.40106  1_455   S
    C207   C205      1.40151      .   S
    C208   C206      1.40151      .   S
    H9     C127      1.09114      .   S
    H8     C126      1.09114      .   S
    C126   C128      1.40159      .   S
    C127   C129      1.40158      .   S
    C133   H11       1.09112      .   S
    C133   C131      1.40077      .   S
    C132   H10       1.09112      .   S
    C132   C130      1.40077      .   S
    H62    C211      1.09114      .   S
    H63    C212      1.09111      .   S
    C212   C201      1.40103  1_655   S
    C211   C202      1.40126      .   S
    C206   H61       1.09111      .   S
    C206   C204      1.40182      .   S
    C205   H60       1.09111      .   S
    C205   C203      1.40182      .   S
    C129   C131      1.41290      .   S
    C129   C135      1.48384      .   S
    C128   C130      1.41290      .   S
    C128   C134      1.48384      .   S
    C131   C159      1.48466      .   S
    C130   C158      1.48466      .   S
    C201   C203      1.41311      .   S
    C201   C196      1.48458  1_455   S
    C202   C204      1.41311      .   S
    C202   C195      1.48397      .   S
    C204   C226      1.48416      .   S
    C203   C225      1.48417      .   S
    H28    C160      1.09110      .   S
    H29    C161      1.09110      .   S
    H56    C197      1.09065      .   S
    H57    C198      1.09063      .   S
    H13    C137      1.08965      .   S
    H12    C136      1.08965      .   S
    H73    C228      1.09105      .   S
    H72    C227      1.09019      .   S
    C134   C136      1.40415      .   S
    C134   C144      1.40579      .   S
    C135   C137      1.40413      .   S
    C135   C145      1.40579      .   S
    C158   C160      1.40478      .   S
    C158   C168      1.40507      .   S
    C159   C161      1.40478      .   S
    C159   C169      1.40507      .   S
    C160   C162      1.39065      .   S
    C161   C163      1.39131      .   S
    C196   C198      1.40436      .   S
    C196   C194      1.40533      .   S
    C195   C197      1.40434      .   S
    C195   C193      1.40532      .   S
    C226   C228      1.40518      .   S
    C226   C236      1.40615      .   S
    C225   C227      1.40518      .   S
    C225   C235      1.40616      .   S
    C198   C200      1.39127      .   S
    C197   C199      1.39048      .   S
    C137   C139      1.39064      .   S
    C136   C138      1.39063      .   S
    C227   C229      1.39118      .   S
    C228   C230      1.39118      .   S
    H18    C144      1.09004      .   S
    H19    C145      1.09002      .   S
    H78    C235      1.08993      .   S
    H79    C236      1.08996      .   S
    C144   C142      1.39225      .   S
    C145   C143      1.39227      .   S
    H35    C169      1.09031      .   S
    H34    C168      1.09010      .   S
    C235   C233      1.39323      .   S
    C236   C234      1.39323      .   S
    C168   C166      1.39232      .   S
    C169   C167      1.39232      .   S
    H55    C193      1.09026      .   S
    H54    C194      1.09053  1_455   S
    C193   C191      1.39155      .   S
    C194   C192      1.39157      .   S
    C162   H30       1.08943      .   S
    C162   C164      1.40320      .   S
    C163   H31       1.08930      .   S
    C163   C165      1.40269      .   S
    C199   H58       1.08906      .   S
    C199   C92       1.40168      .   S
    C200   H59       1.08890      .   S
    C200   C190      1.40105      .   S
    C139   H15       1.08898      .   S
    C139   C141      1.40131      .   S
    C138   H14       1.08899      .   S
    C138   C140      1.40131      .   S
    C230   H75       1.08939      .   S
    C230   C232      1.40310      .   S
    C229   H74       1.08938      .   S
    C229   C231      1.40310      .   S
    C143   C141      1.40285      .   S
    C143   H17       1.08969      .   S
    C142   C140      1.40285      .   S
    C142   H16       1.08968      .   S
    C233   C231      1.40289      .   S
    C233   H76       1.08921      .   S
    C234   C232      1.40287      .   S
    C234   H77       1.08920      .   S
    C167   C165      1.40316      .   S
    C167   H33       1.08871      .   S
    C166   C164      1.40316      .   S
    C166   H32       1.08871      .   S
    C191   C92       1.40282      .   S
    C191   H52       1.08943      .   S
    C192   C190      1.40282      .   S
    C192   H53       1.08942      .   S
    H46    C184      1.09028  1_545   S
    H47    C185      1.08982  1_545   S
    H45    C183      1.08993      .   S
    H44    C182      1.08993      .   S
    H103   C262      1.09016      .   S
    H104   C263      1.08997      .   S
    H102   C261      1.08920      .   S
    H101   C260      1.08919      .   S
    C185   C183      1.38839      .   S
    C185   N267      1.34902  1_565   S
    C184   C182      1.38834      .   S
    C184   N266      1.34895  1_565   S
    C182   C180      1.40429      .   S
    C183   C181      1.40429      .   S
    C263   C261      1.38768  1_545   S
    C262   C260      1.38768  1_545   S
    H88    C244      1.08692      .   S
    H89    C245      1.08692      .   S
    H91    C247      1.08852      .   S
    H90    C246      1.08852      .   S
    C244   C246      1.38771      .   S
    C244   N268      1.34914      .   S
    C245   C247      1.38771      .   S
    C245   N269      1.34914      .   S
    H41    C177      1.08804      .   S
    H40    C176      1.08804      .   S
    C181   C175      1.47453      .   S
    C180   C174      1.47453      .   S
    H42    C179      1.08692      .   S
    H43    C178      1.08722      .   S
    C176   C179      1.38617      .   S
    C176   C175      1.40017      .   S
    C177   C178      1.38617      .   S
    C177   C174      1.40046  1_655   S
