# CIF file generated by openbabel 2.4.90, see http://openbabel.sf.net
data_I
_chemical_name_common ''
_cell_length_a 23.285
_cell_length_b 13.976
_cell_length_c 15.782
_cell_angle_alpha 96.063
_cell_angle_beta 89.996
_cell_angle_gamma 89.977
_space_group_name_H-M_alt 'P 1'
_space_group_name_Hall 'P 1'
loop_
    _symmetry_equiv_pos_as_xyz
    x,y,z
loop_
    _atom_site_label
    _atom_site_type_symbol
    _atom_site_fract_x
    _atom_site_fract_y
    _atom_site_fract_z
    _atom_site_occupancy
    C0      C    0.97276   0.29186   0.87070   1.000
    C1      C    0.37184   0.70058   0.88179   1.000
    C2      C    0.87183   0.70058   0.88179   1.000
    C3      C    0.12186   0.29939   0.11810   1.000
    C4      C    0.62185   0.29939   0.11810   1.000
    C5      C    0.12607   0.29295   0.87445   1.000
    C6      C    0.62606   0.29295   0.87445   1.000
    C7      C    0.46925   0.30846   0.11492   1.000
    C8      C    0.96924   0.30846   0.11492   1.000
    C9      C    0.47277   0.29187   0.87070   1.000
    C10     C    0.37606   0.70702   0.12550   1.000
    C11     C    0.87605   0.70702   0.12552   1.000
    C12     C    0.21923   0.69156   0.88504   1.000
    C13     C    0.71922   0.69156   0.88504   1.000
    C14     C    0.22276   0.70816   0.12926   1.000
    C15     C    0.72276   0.70816   0.12926   1.000
