# CIF file generated by openbabel 2.4.90, see http://openbabel.sf.net
data_I
_chemical_name_common ''
_cell_length_a 23.285
_cell_length_b 13.976
_cell_length_c 15.782
_cell_angle_alpha 96.063
_cell_angle_beta 89.996
_cell_angle_gamma 89.977
_space_group_name_H-M_alt 'P 1'
_space_group_name_Hall 'P 1'
loop_
    _symmetry_equiv_pos_as_xyz
    x,y,z
loop_
    _atom_site_label
    _atom_site_type_symbol
    _atom_site_fract_x
    _atom_site_fract_y
    _atom_site_fract_z
    _atom_site_occupancy
    C0      C    0.04742   0.19675   0.98514   1.000
    C1      C    0.54742   0.19675   0.98514   1.000
    C2      C    0.04785   0.40011   0.00340   1.000
    C3      C    0.54784   0.40011   0.00340   1.000
    C4      C    0.29739   0.80324   0.01482   1.000
    C5      C    0.79738   0.80324   0.01482   1.000
    C6      C    0.29786   0.59988   0.99656   1.000
    C7      C    0.79785   0.59988   0.99656   1.000
    C8      C    0.20287   0.16718   0.14822   1.000
    C9      C    0.70286   0.16718   0.14822   1.000
    C10     C    0.26799   0.16904   0.27361   1.000
    C11     C    0.76798   0.16904   0.27361   1.000
    C12     C    0.18593   0.42744   0.38651   1.000
    C13     C    0.68592   0.42744   0.38651   1.000
    C14     C    0.12494   0.43049   0.25632   1.000
    C15     C    0.62493   0.43049   0.25632   1.000
    C16     C    0.40346   0.29839   0.49260   1.000
    C17     C    0.90346   0.29839   0.49260   1.000
    C18     C    0.19159   0.29489   0.49589   1.000
    C19     C    0.69158   0.29489   0.49589   1.000
    C20     C    0.40989   0.42268   0.62747   1.000
    C21     C    0.90988   0.42268   0.62747   1.000
    C22     C    0.47056   0.42359   0.75784   1.000
    C23     C    0.97055   0.42359   0.75784   1.000
    C24     C    0.39049   0.16162   0.81570   1.000
    C25     C    0.89048   0.16161   0.81570   1.000
    C26     C    0.32584   0.16537   0.69028   1.000
    C27     C    0.82583   0.16537   0.69028   1.000
    C28     C    0.41023   0.17476   0.35835   1.000
    C29     C    0.91023   0.17476   0.35835   1.000
    C30     C    0.47079   0.17908   0.22844   1.000
    C31     C    0.97078   0.17908   0.22844   1.000
    C32     C    0.38420   0.43614   0.17123   1.000
    C33     C    0.88420   0.43614   0.17123   1.000
    C34     C    0.32139   0.42905   0.29740   1.000
    C35     C    0.82139   0.42904   0.29740   1.000
    C36     C    0.19109   0.15984   0.60846   1.000
    C37     C    0.69108   0.15984   0.60846   1.000
    C38     C    0.13099   0.15889   0.73943   1.000
    C39     C    0.63098   0.15889   0.73943   1.000
    C40     C    0.20472   0.42944   0.83953   1.000
    C41     C    0.70471   0.42944   0.83953   1.000
    C42     C    0.26760   0.42719   0.71298   1.000
    C43     C    0.76759   0.42719   0.71290   1.000
    C44     C    0.13760   0.55717   0.00000   1.000
    C45     C    0.63760   0.55717   0.00000   1.000
    C46     C    0.14051   0.73402   0.01287   1.000
    C47     C    0.64050   0.73402   0.01287   1.000
    C48     C    0.45528   0.72824   0.99034   1.000
    C49     C    0.95528   0.72824   0.99034   1.000
    C50     C    0.45978   0.55175   0.99514   1.000
    C51     C    0.95977   0.55175   0.99514   1.000
    C52     C    0.12275   0.85209   0.91352   1.000
    C53     C    0.62274   0.85209   0.91352   1.000
    C54     C    0.11782   0.03075   0.90750   1.000
    C55     C    0.61782   0.03075   0.90753   1.000
    C56     C    0.47390   0.05614   0.06132   1.000
    C57     C    0.97390   0.05614   0.06132   1.000
    C58     C    0.47069   0.87804   0.07173   1.000
    C59     C    0.97068   0.87804   0.07173   1.000
    C60     C    0.45281   0.83276   0.85176   1.000
    C61     C    0.95280   0.83276   0.85176   1.000
    C62     C    0.01794   0.83089   0.72635   1.000
    C63     C    0.51793   0.83089   0.72635   1.000
    C64     C    0.43596   0.57255   0.61343   1.000
    C65     C    0.93595   0.57255   0.61343   1.000
    C66     C    0.37496   0.56951   0.74363   1.000
    C67     C    0.87495   0.56951   0.74363   1.000
    C68     C    0.15346   0.70163   0.50727   1.000
    C69     C    0.65345   0.70163   0.50727   1.000
    C70     C    0.44158   0.70505   0.50407   1.000
    C71     C    0.94157   0.70505   0.50407   1.000
    C72     C    0.15994   0.57731   0.37247   1.000
    C73     C    0.65993   0.57731   0.37247   1.000
    C74     C    0.22061   0.57642   0.24208   1.000
    C75     C    0.72060   0.57642   0.24208   1.000
    C76     C    0.14045   0.83844   0.18430   1.000
    C77     C    0.64044   0.83844   0.18430   1.000
    C78     C    0.07579   0.83467   0.30972   1.000
    C79     C    0.57578   0.83467   0.30972   1.000
    C80     C    0.16018   0.82522   0.64158   1.000
    C81     C    0.66017   0.82522   0.64150   1.000
    C82     C    0.22073   0.82092   0.77148   1.000
    C83     C    0.72072   0.82091   0.77148   1.000
    C84     C    0.13424   0.56391   0.82876   1.000
    C85     C    0.63423   0.56391   0.82876   1.000
    C86     C    0.07144   0.57098   0.70260   1.000
    C87     C    0.57143   0.57097   0.70260   1.000
    C88     C    0.44105   0.84017   0.39146   1.000
    C89     C    0.94105   0.84017   0.39146   1.000
    C90     C    0.38096   0.84111   0.26050   1.000
    C91     C    0.88095   0.84111   0.26050   1.000
    C92     C    0.45475   0.57048   0.16046   1.000
    C93     C    0.95475   0.57048   0.16046   1.000
    C94     C    0.01763   0.57273   0.28700   1.000
    C95     C    0.51762   0.57273   0.28700   1.000
    C96     C    0.38763   0.44269   0.98206   1.000
    C97     C    0.88762   0.44269   0.98206   1.000
    C98     C    0.39053   0.26584   0.98711   1.000
    C99     C    0.89052   0.26584   0.98711   1.000
    C100    C    0.20529   0.27190   0.00959   1.000
    C101    C    0.70529   0.27190   0.00959   1.000
    C102    C    0.20982   0.44837   0.00000   1.000
    C103    C    0.70981   0.44837   0.00000   1.000
    C104    C    0.37273   0.14778   0.08644   1.000
    C105    C    0.87272   0.14778   0.08644   1.000
    C106    C    0.36777   0.96913   0.09244   1.000
    C107    C    0.86777   0.96913   0.09240   1.000
    C108    C    0.22389   0.94397   0.93864   1.000
    C109    C    0.72388   0.94397   0.93864   1.000
    C110    C    0.22071   0.12207   0.92820   1.000
    C111    C    0.72070   0.12207   0.92822   1.000
    C112    C    0.12186   0.29939   0.11810   1.000
    C113    C    0.62185   0.29939   0.11810   1.000
    C114    C    0.16017   0.29912   0.19431   1.000
    C115    C    0.66017   0.29912   0.19431   1.000
    C116    C    0.20035   0.22523   0.19988   1.000
    C117    C    0.70034   0.22523   0.19988   1.000
    C118    C    0.23632   0.22601   0.27038   1.000
    C119    C    0.73631   0.22601   0.27038   1.000
    C120    C    0.23124   0.29856   0.33874   1.000
    C121    C    0.73123   0.29856   0.33874   1.000
    C122    C    0.19008   0.37116   0.33347   1.000
    C123    C    0.69007   0.37116   0.33347   1.000
    C124    C    0.15573   0.37274   0.26149   1.000
    C125    C    0.65573   0.37274   0.26149   1.000
    C126    C    0.26659   0.29807   0.41692   1.000
    C127    C    0.76658   0.29807   0.41692   1.000
    C128    C    0.32727   0.29872   0.41592   1.000
    C129    C    0.82726   0.29872   0.41592   1.000
    C130    C    0.35661   0.29757   0.49336   1.000
    C131    C    0.85660   0.29757   0.49336   1.000
    C132    C    0.32847   0.29552   0.57166   1.000
    C133    C    0.82847   0.29552   0.57166   1.000
    C134    C    0.26780   0.29420   0.57247   1.000
    C135    C    0.76780   0.29420   0.57247   1.000
    C136    C    0.23844   0.29564   0.49515   1.000
    C137    C    0.73843   0.29564   0.49515   1.000
    C138    C    0.36366   0.29430   0.64992   1.000
    C139    C    0.86366   0.29430   0.64992   1.000
    C140    C    0.40527   0.36597   0.66935   1.000
    C141    C    0.90526   0.36597   0.66935   1.000
    C142    C    0.43945   0.36642   0.74164   1.000
    C143    C    0.93944   0.36642   0.74164   1.000
    C144    C    0.43440   0.29253   0.79468   1.000
    C145    C    0.93440   0.29253   0.79468   1.000
    C146    C    0.39366   0.21966   0.77495   1.000
    C147    C    0.89365   0.21966   0.77495   1.000
    C148    C    0.35793   0.22155   0.70442   1.000
    C149    C    0.85792   0.22155   0.70442   1.000
    C150    C    0.36148   0.30138   0.33684   1.000
    C151    C    0.86147   0.30138   0.33684   1.000
    C152    C    0.40416   0.23153   0.31677   1.000
    C153    C    0.90415   0.23153   0.31677   1.000
    C154    C    0.43794   0.23356   0.24434   1.000
    C155    C    0.93793   0.23356   0.24434   1.000
    C156    C    0.43111   0.30717   0.19122   1.000
    C157    C    0.93110   0.30717   0.19122   1.000
    C158    C    0.38917   0.37800   0.21150   1.000
    C159    C    0.88917   0.37800   0.21150   1.000
    C160    C    0.35416   0.37409   0.28264   1.000
    C161    C    0.85415   0.37409   0.28264   1.000
    C162    C    0.23367   0.29324   0.65184   1.000
    C163    C    0.73367   0.29324   0.65184   1.000
    C164    C    0.19458   0.21820   0.65987   1.000
    C165    C    0.69457   0.21820   0.65987   1.000
    C166    C    0.16104   0.21733   0.73270   1.000
    C167    C    0.66103   0.21733   0.73275   1.000
    C168    C    0.16440   0.29318   0.79827   1.000
    C169    C    0.66440   0.29318   0.79827   1.000
    C170    C    0.20269   0.36913   0.78996   1.000
    C171    C    0.70268   0.36913   0.78996   1.000
    C172    C    0.23768   0.36816   0.71833   1.000
    C173    C    0.73767   0.36816   0.71833   1.000
    C174    C    0.09821   0.59749   0.01134   1.000
    C175    C    0.59820   0.59749   0.01134   1.000
    C176    C    0.09959   0.69624   0.00769   1.000
    C177    C    0.59958   0.69624   0.00769   1.000
    C178    C    0.04792   0.74582   0.99969   1.000
    C179    C    0.54791   0.74582   0.99969   1.000
    C180    C    0.49662   0.69329   0.99640   1.000
    C181    C    0.99662   0.69329   0.99640   1.000
    C182    C    0.99887   0.59449   0.99872   1.000
    C183    C    0.49887   0.59448   0.99872   1.000
    C184    C    0.04726   0.85051   0.99435   1.000
    C185    C    0.54725   0.85051   0.99435   1.000
    C186    C    0.08925   0.89469   0.94785   1.000
    C187    C    0.58924   0.89469   0.94785   1.000
    C188    C    0.08685   0.99340   0.94402   1.000
    C189    C    0.58684   0.99340   0.94400   1.000
    C190    C    0.00537   0.00733   0.02914   1.000
    C191    C    0.50536   0.00733   0.02914   1.000
    C192    C    0.00422   0.90895   0.03486   1.000
    C193    C    0.50421   0.90895   0.03486   1.000
    C194    C    0.12607   0.29295   0.87445   1.000
    C195    C    0.62606   0.29295   0.87445   1.000
    C196    C    0.46925   0.30846   0.11492   1.000
    C197    C    0.96924   0.30846   0.11492   1.000
    C198    C    0.47277   0.29187   0.87070   1.000
    C199    C    0.97276   0.29186   0.87070   1.000
    C200    C    0.37184   0.70058   0.88179   1.000
    C201    C    0.87183   0.70058   0.88179   1.000
    C202    C    0.41016   0.70085   0.80565   1.000
    C203    C    0.91015   0.70085   0.80565   1.000
    C204    C    0.45031   0.77472   0.80008   1.000
    C205    C    0.95030   0.77472   0.80008   1.000
    C206    C    0.48628   0.77393   0.72959   1.000
    C207    C    0.98627   0.77393   0.72959   1.000
    C208    C    0.48122   0.70139   0.66122   1.000
    C209    C    0.98122   0.70139   0.66122   1.000
    C210    C    0.44008   0.62881   0.66648   1.000
    C211    C    0.94007   0.62881   0.66648   1.000
    C212    C    0.40574   0.62724   0.73840   1.000
    C213    C    0.90573   0.62724   0.73846   1.000
    C214    C    0.01659   0.70189   0.58300   1.000
    C215    C    0.51658   0.70189   0.58303   1.000
    C216    C    0.07727   0.70127   0.58404   1.000
    C217    C    0.57726   0.70127   0.58404   1.000
    C218    C    0.10661   0.70243   0.50659   1.000
    C219    C    0.60660   0.70243   0.50659   1.000
    C220    C    0.07847   0.70447   0.42830   1.000
    C221    C    0.57846   0.70447   0.42830   1.000
    C222    C    0.01780   0.70577   0.42748   1.000
    C223    C    0.51779   0.70577   0.42748   1.000
    C224    C    0.48843   0.70431   0.50481   1.000
    C225    C    0.98842   0.70431   0.50481   1.000
    C226    C    0.11366   0.70571   0.35004   1.000
    C227    C    0.61366   0.70571   0.35004   1.000
    C228    C    0.15529   0.63403   0.33059   1.000
    C229    C    0.65529   0.63403   0.33059   1.000
    C230    C    0.18948   0.63360   0.25830   1.000
    C231    C    0.68947   0.63360   0.25830   1.000
    C232    C    0.18440   0.70751   0.20520   1.000
    C233    C    0.68440   0.70751   0.20528   1.000
    C234    C    0.14363   0.78038   0.22503   1.000
    C235    C    0.64363   0.78038   0.22503   1.000
    C236    C    0.10790   0.77848   0.29556   1.000
    C237    C    0.60789   0.77848   0.29556   1.000
    C238    C    0.11147   0.69862   0.66311   1.000
    C239    C    0.61146   0.69862   0.66311   1.000
    C240    C    0.15413   0.76846   0.68310   1.000
    C241    C    0.65412   0.76846   0.68310   1.000
    C242    C    0.18790   0.76645   0.75560   1.000
    C243    C    0.68790   0.76644   0.75560   1.000
    C244    C    0.18110   0.69285   0.80874   1.000
    C245    C    0.68109   0.69285   0.80874   1.000
    C246    C    0.13919   0.62203   0.78848   1.000
    C247    C    0.63919   0.62203   0.78848   1.000
    C248    C    0.10418   0.62593   0.71734   1.000
    C249    C    0.60418   0.62593   0.71734   1.000
    C250    C    0.48367   0.70672   0.34811   1.000
    C251    C    0.98366   0.70672   0.34811   1.000
    C252    C    0.44456   0.78178   0.34007   1.000
    C253    C    0.94455   0.78178   0.34007   1.000
    C254    C    0.41102   0.78265   0.26719   1.000
    C255    C    0.91101   0.78265   0.26719   1.000
    C256    C    0.41440   0.70678   0.20169   1.000
    C257    C    0.91439   0.70678   0.20169   1.000
    C258    C    0.45270   0.63080   0.21001   1.000
    C259    C    0.95269   0.63080   0.21001   1.000
    C260    C    0.48769   0.63178   0.28164   1.000
    C261    C    0.98768   0.63178   0.28164   1.000
    C262    C    0.34824   0.40243   0.98864   1.000
    C263    C    0.84823   0.40243   0.98864   1.000
    C264    C    0.34961   0.30368   0.99229   1.000
    C265    C    0.84960   0.30368   0.99229   1.000
    C266    C    0.29793   0.25418   0.00000   1.000
    C267    C    0.79792   0.25417   0.00000   1.000
    C268    C    0.24665   0.30678   0.00000   1.000
    C269    C    0.74664   0.30678   0.00000   1.000
    C270    C    0.24890   0.40558   0.00000   1.000
    C271    C    0.74889   0.40558   0.00000   1.000
    C272    C    0.29726   0.14948   0.00000   1.000
    C273    C    0.79726   0.14948   0.00000   1.000
    C274    C    0.33923   0.10523   0.05211   1.000
    C275    C    0.83922   0.10523   0.05211   1.000
    C276    C    0.33681   0.00000   0.05594   1.000
    C277    C    0.83680   0.00000   0.05594   1.000
    C278    C    0.25536   0.99273   0.97082   1.000
    C279    C    0.75535   0.99273   0.97082   1.000
    C280    C    0.25422   0.09111   0.96510   1.000
    C281    C    0.75421   0.09111   0.96510   1.000
    C282    C    0.37606   0.70702   0.12550   1.000
    C283    C    0.87605   0.70702   0.12552   1.000
    C284    C    0.21923   0.69156   0.88504   1.000
    C285    C    0.71922   0.69156   0.88504   1.000
    C286    C    0.22276   0.70816   0.12926   1.000
    C287    C    0.72276   0.70816   0.12926   1.000
    C288    C    0.04876   0.54693   0.00602   1.000
    C289    C    0.54876   0.54693   0.00602   1.000
    C290    C    0.04595   0.04932   0.98451   1.000
    C291    C    0.54594   0.04931   0.98450   1.000
    C292    C    0.29879   0.45306   0.99394   1.000
    C293    C    0.79879   0.45306   0.99394   1.000
    C294    C    0.29591   0.95068   0.01546   1.000
    C295    C    0.79590   0.95068   0.01546   1.000
    C296    C    0.09718   0.37874   0.10734   1.000
    C297    C    0.59717   0.37874   0.10734   1.000
    C298    C    0.11696   0.22091   0.06957   1.000
    C299    C    0.61695   0.22091   0.06957   1.000
    C300    C    0.11972   0.37142   0.92230   1.000
    C301    C    0.61971   0.37142   0.92230   1.000
    C302    C    0.10220   0.21265   0.88554   1.000
    C303    C    0.60219   0.21265   0.88554   1.000
    C304    C    0.49330   0.22844   0.08874   1.000
    C305    C    0.99329   0.22844   0.08874   1.000
    C306    C    0.47520   0.38699   0.08173   1.000
    C307    C    0.97519   0.38699   0.08173   1.000
    C308    C    0.49765   0.37099   0.89630   1.000
    C309    C    0.99765   0.37099   0.89630   1.000
    C310    C    0.47781   0.21325   0.90441   1.000
    C311    C    0.97780   0.21325   0.90441   1.000
    C312    C    0.34719   0.62124   0.89262   1.000
    C313    C    0.84718   0.62124   0.89262   1.000
    C314    C    0.36692   0.77906   0.93040   1.000
    C315    C    0.86691   0.77906   0.93040   1.000
    C316    C    0.36971   0.62855   0.07760   1.000
    C317    C    0.86971   0.62855   0.07760   1.000
    C318    C    0.35218   0.78735   0.11442   1.000
    C319    C    0.85217   0.78735   0.11442   1.000
    C320    C    0.24325   0.77157   0.91123   1.000
    C321    C    0.74324   0.77157   0.91123   1.000
    C322    C    0.22522   0.61302   0.91823   1.000
    C323    C    0.72521   0.61302   0.91823   1.000
    C324    C    0.24766   0.62901   0.10350   1.000
    C325    C    0.74766   0.62901   0.10356   1.000
    C326    C    0.22780   0.78678   0.09556   1.000
    C327    C    0.72779   0.78678   0.09556   1.000
    O328    O    0.29760   0.20183   0.00000   1.000
    O329    O    0.27229   0.28048   0.00000   1.000
    O330    O    0.32377   0.27893   0.99615   1.000
    O331    O    0.11791   0.57733   0.00567   1.000
    O332    O    0.61790   0.57733   0.00567   1.000
    O333    O    0.79759   0.20183   0.00000   1.000
    O334    O    0.81824   0.12736   0.02606   1.000
    O335    O    0.77574   0.12030   0.98255   1.000
    O336    O    0.31825   0.12736   0.02606   1.000
    O337    O    0.27574   0.12030   0.98255   1.000
    O338    O    0.74776   0.35618   0.00000   1.000
    O339    O    0.72935   0.42697   0.00000   1.000
    O340    O    0.77384   0.42932   0.99697   1.000
    O341    O    0.24777   0.35618   0.00000   1.000
    O342    O    0.22936   0.42697   0.00000   1.000
    O343    O    0.27385   0.42932   0.99697   1.000
    O344    O    0.77228   0.28048   0.00000   1.000
    O345    O    0.72596   0.28934   0.00480   1.000
    O346    O    0.22597   0.28934   0.00480   1.000
    O347    O    0.82376   0.27893   0.99615   1.000
    O348    O    0.04831   0.47352   0.00471   1.000
    O349    O    0.01152   0.39355   0.04257   1.000
    O350    O    0.07251   0.38943   0.05537   1.000
    O351    O    0.02275   0.38555   0.94985   1.000
    O352    O    0.08378   0.38577   0.96285   1.000
    O353    O    0.54830   0.47352   0.00471   1.000
    O354    O    0.51152   0.39355   0.04257   1.000
    O355    O    0.57251   0.38943   0.05537   1.000
    O356    O    0.52275   0.38555   0.94985   1.000
    O357    O    0.58377   0.38577   0.96285   1.000
    O358    O    0.57348   0.57221   0.00868   1.000
    O359    O    0.52381   0.57071   0.00237   1.000
    O360    O    0.07349   0.57221   0.00868   1.000
    O361    O    0.02382   0.57071   0.00237   1.000
    O362    O    0.09890   0.64686   0.00952   1.000
    O363    O    0.12005   0.71513   0.01028   1.000
    O364    O    0.07375   0.72103   0.00369   1.000
    O365    O    0.59889   0.64686   0.00952   1.000
    O366    O    0.62004   0.71513   0.01028   1.000
    O367    O    0.57374   0.72103   0.00369   1.000
    O368    O    0.29665   0.87696   0.01514   1.000
    O369    O    0.26259   0.79501   0.05519   1.000
    O370    O    0.32479   0.79529   0.06462   1.000
    O371    O    0.27032   0.78741   0.96303   1.000
    O372    O    0.33215   0.79115   0.97261   1.000
    O373    O    0.79664   0.87696   0.01514   1.000
    O374    O    0.76259   0.79501   0.05519   1.000
    O375    O    0.82478   0.79529   0.06462   1.000
    O376    O    0.77031   0.78741   0.96303   1.000
    O377    O    0.83215   0.79115   0.97261   1.000
    O378    O    0.31636   0.97534   0.03570   1.000
    O379    O    0.27563   0.97170   0.99314   1.000
    O380    O    0.81635   0.97534   0.03570   1.000
    O381    O    0.77562   0.97170   0.99314   1.000
    O382    O    0.00480   0.95814   0.03200   1.000
    O383    O    0.98963   0.03174   0.04523   1.000
    O384    O    0.02566   0.02832   0.00683   1.000
    O385    O    0.50479   0.95814   0.03200   1.000
    O386    O    0.48963   0.03174   0.04523   1.000
    O387    O    0.52565   0.02832   0.00682   1.000
    O388    O    0.48745   0.89350   0.05330   1.000
    O389    O    0.52573   0.87973   0.01461   1.000
    O390    O    0.98745   0.89350   0.05330   1.000
    O391    O    0.02574   0.87973   0.01461   1.000
    O392    O    0.33802   0.05262   0.05403   1.000
    O393    O    0.35598   0.12651   0.06928   1.000
    O394    O    0.83801   0.05262   0.05403   1.000
    O395    O    0.85597   0.12651   0.06928   1.000
    O396    O    0.85228   0.98456   0.07417   1.000
    O397    O    0.35229   0.98456   0.07419   1.000
    O398    O    0.11941   0.26015   0.09384   1.000
    O399    O    0.08219   0.20883   0.02736   1.000
    O400    O    0.61940   0.26015   0.09384   1.000
    O401    O    0.58218   0.20883   0.02736   1.000
    O402    O    0.37289   0.66779   0.10155   1.000
    O403    O    0.33379   0.61422   0.03708   1.000
    O404    O    0.87288   0.66779   0.10156   1.000
    O405    O    0.83378   0.61422   0.03708   1.000
    O406    O    0.47222   0.34773   0.09833   1.000
    O407    O    0.97222   0.34773   0.09833   1.000
    O408    O    0.48127   0.26845   0.10183   1.000
    O409    O    0.52036   0.21260   0.03694   1.000
    O410    O    0.98126   0.26845   0.10183   1.000
    O411    O    0.02036   0.21260   0.03694   1.000
    O412    O    0.22528   0.74747   0.11241   1.000
    O413    O    0.72527   0.74747   0.11241   1.000
    O414    O    0.23521   0.66858   0.11638   1.000
    O415    O    0.27276   0.61444   0.05003   1.000
    O416    O    0.73521   0.66858   0.11641   1.000
    O417    O    0.77275   0.61444   0.05006   1.000
    O418    O    0.10952   0.33907   0.11272   1.000
    O419    O    0.60951   0.33907   0.11272   1.000
    O420    O    0.36412   0.74718   0.11996   1.000
    O421    O    0.86411   0.74718   0.11997   1.000
    O422    O    0.95017   0.30782   0.15307   1.000
    O423    O    0.45018   0.30782   0.15307   1.000
    O424    O    0.14102   0.29925   0.15621   1.000
    O425    O    0.64101   0.29925   0.15621   1.000
    O426    O    0.39523   0.70690   0.16360   1.000
    O427    O    0.89522   0.70690   0.16361   1.000
    O428    O    0.20358   0.70783   0.16723   1.000
    O429    O    0.70358   0.70783   0.16727   1.000
    O430    O    0.20161   0.19620   0.17405   1.000
    O431    O    0.70160   0.19620   0.17405   1.000
    O432    O    0.95372   0.60064   0.18524   1.000
    O433    O    0.45373   0.60064   0.18524   1.000
    O434    O    0.88668   0.40707   0.19137   1.000
    O435    O    0.38669   0.40707   0.19137   1.000
    O436    O    0.14204   0.80941   0.20467   1.000
    O437    O    0.64203   0.80941   0.20467   1.000
    O438    O    0.41014   0.34258   0.20136   1.000
    O439    O    0.43452   0.27036   0.21778   1.000
    O440    O    0.91013   0.34258   0.20136   1.000
    O441    O    0.93452   0.27036   0.21778   1.000
    O442    O    0.68025   0.26217   0.19710   1.000
    O443    O    0.65795   0.33593   0.22790   1.000
    O444    O    0.18026   0.26217   0.19710   1.000
    O445    O    0.15795   0.33593   0.22790   1.000
    O446    O    0.71833   0.22562   0.23513   1.000
    O447    O    0.21833   0.22562   0.23513   1.000
    O448    O    0.43355   0.66879   0.20585   1.000
    O449    O    0.41271   0.74472   0.23444   1.000
    O450    O    0.93354   0.66879   0.20585   1.000
    O451    O    0.91270   0.74472   0.23444   1.000
    O452    O    0.16402   0.74395   0.21512   1.000
    O453    O    0.18694   0.67055   0.23175   1.000
    O454    O    0.66401   0.74394   0.21516   1.000
    O455    O    0.68693   0.67055   0.23179   1.000
    O456    O    0.97019   0.63129   0.24583   1.000
    O457    O    0.47019   0.63129   0.24583   1.000
    O458    O    0.87166   0.37604   0.24707   1.000
    O459    O    0.37167   0.37605   0.24707   1.000
    O460    O    0.12576   0.77943   0.26030   1.000
    O461    O    0.62576   0.77943   0.26030   1.000
    O462    O    0.45436   0.20632   0.23639   1.000
    O463    O    0.95435   0.20632   0.23639   1.000
    O464    O    0.20505   0.60501   0.25019   1.000
    O465    O    0.70504   0.60501   0.25019   1.000
    O466    O    0.92104   0.23254   0.28056   1.000
    O467    O    0.42105   0.23254   0.28056   1.000
    O468    O    0.64033   0.40161   0.25891   1.000
    O469    O    0.14034   0.40161   0.25891   1.000
    O470    O    0.17239   0.63382   0.29445   1.000
    O471    O    0.67238   0.63381   0.29445   1.000
    O472    O    0.89598   0.81188   0.26385   1.000
    O473    O    0.39599   0.81188   0.26385   1.000
    O474    O    0.17290   0.37195   0.29748   1.000
    O475    O    0.67290   0.37195   0.29748   1.000
    O476    O    0.42779   0.78222   0.30363   1.000
    O477    O    0.92778   0.78222   0.30363   1.000
    O478    O    0.25216   0.19753   0.27200   1.000
    O479    O    0.23378   0.26229   0.30456   1.000
    O480    O    0.75215   0.19753   0.27200   1.000
    O481    O    0.73377   0.26229   0.30456   1.000
    O482    O    0.50266   0.60225   0.28432   1.000
    O483    O    0.48568   0.66925   0.31488   1.000
    O484    O    0.00266   0.60225   0.28432   1.000
    O485    O    0.98567   0.66925   0.31488   1.000
    O486    O    0.83777   0.40157   0.29002   1.000
    O487    O    0.85781   0.33773   0.30974   1.000
    O488    O    0.33778   0.40157   0.29002   1.000
    O489    O    0.35782   0.33773   0.30974   1.000
    O490    O    0.09184   0.80657   0.30264   1.000
    O491    O    0.11078   0.74209   0.32280   1.000
    O492    O    0.59183   0.80657   0.30264   1.000
    O493    O    0.61077   0.74209   0.32280   1.000
    O494    O    0.38282   0.26645   0.32681   1.000
    O495    O    0.40720   0.20314   0.33756   1.000
    O496    O    0.88281   0.26645   0.32681   1.000
    O497    O    0.90719   0.20314   0.33756   1.000
    O498    O    0.13448   0.66987   0.34032   1.000
    O499    O    0.15762   0.60567   0.35153   1.000
    O500    O    0.63447   0.66987   0.34032   1.000
    O501    O    0.65761   0.60567   0.35153   1.000
    O502    O    0.71065   0.33486   0.33611   1.000
    O503    O    0.68800   0.39930   0.35999   1.000
    O504    O    0.21066   0.33486   0.33611   1.000
    O505    O    0.18800   0.39930   0.35999   1.000
    O506    O    0.84437   0.30005   0.37638   1.000
    O507    O    0.34437   0.30005   0.37638   1.000
    O508    O    0.24891   0.29832   0.37783   1.000
    O509    O    0.74891   0.29832   0.37783   1.000
    O510    O    0.46411   0.74425   0.34409   1.000
    O511    O    0.44281   0.81097   0.36577   1.000
    O512    O    0.96410   0.74425   0.34409   1.000
    O513    O    0.94280   0.81097   0.36577   1.000
    O514    O    0.50073   0.70625   0.38780   1.000
    O515    O    0.00073   0.70624   0.38780   1.000
    O516    O    0.09607   0.70509   0.38917   1.000
    O517    O    0.59606   0.70509   0.38917   1.000
    O518    O    0.79692   0.29840   0.41642   1.000
    O519    O    0.84193   0.29814   0.45464   1.000
    O520    O    0.29693   0.29840   0.41642   1.000
    O521    O    0.34194   0.29814   0.45464   1.000
    O522    O    0.25252   0.29686   0.45604   1.000
    O523    O    0.75251   0.29686   0.45604   1.000
    O524    O    0.54813   0.70512   0.42789   1.000
    O525    O    0.50311   0.70504   0.46615   1.000
    O526    O    0.04814   0.70512   0.42789   1.000
    O527    O    0.00311   0.70504   0.46615   1.000
    O528    O    0.09254   0.70345   0.46745   1.000
    O529    O    0.59253   0.70345   0.46745   1.000
    O530    O    0.88003   0.29798   0.49298   1.000
    O531    O    0.38004   0.29798   0.49298   1.000
    O532    O    0.34254   0.29655   0.53251   1.000
    O533    O    0.84253   0.29655   0.53251   1.000
    O534    O    0.71501   0.29526   0.49552   1.000
    O535    O    0.75311   0.29492   0.53381   1.000
    O536    O    0.21502   0.29526   0.49552   1.000
    O537    O    0.25312   0.29492   0.53381   1.000
    O538    O    0.46500   0.70468   0.50444   1.000
    O539    O    0.96500   0.70468   0.50444   1.000
    O540    O    0.00250   0.70310   0.54390   1.000
    O541    O    0.50250   0.70310   0.54392   1.000
    O542    O    0.63003   0.70203   0.50693   1.000
    O543    O    0.59193   0.70185   0.54532   1.000
    O544    O    0.13003   0.70203   0.50693   1.000
    O545    O    0.09194   0.70185   0.54532   1.000
    O546    O    0.79813   0.29486   0.57207   1.000
    O547    O    0.84606   0.29491   0.61079   1.000
    O548    O    0.29814   0.29486   0.57207   1.000
    O549    O    0.34607   0.29491   0.61079   1.000
    O550    O    0.75073   0.29372   0.61216   1.000
    O551    O    0.25074   0.29372   0.61216   1.000
    O552    O    0.04693   0.70158   0.58352   1.000
    O553    O    0.99890   0.70164   0.62211   1.000
    O554    O    0.54692   0.70158   0.58354   1.000
    O555    O    0.49890   0.70164   0.62213   1.000
    O556    O    0.59436   0.69994   0.62358   1.000
    O557    O    0.09437   0.69994   0.62358   1.000
    O558    O    0.19283   0.18902   0.63417   1.000
    O559    O    0.69283   0.18902   0.63417   1.000
    O560    O    0.43802   0.60068   0.63996   1.000
    O561    O    0.93801   0.60068   0.63996   1.000
    O562    O    0.90757   0.39433   0.64841   1.000
    O563    O    0.40758   0.39433   0.64841   1.000
    O564    O    0.65715   0.79684   0.66230   1.000
    O565    O    0.15716   0.79684   0.66234   1.000
    O566    O    0.38446   0.33014   0.65964   1.000
    O567    O    0.36079   0.25793   0.67717   1.000
    O568    O    0.88446   0.33014   0.65964   1.000
    O569    O    0.86079   0.25793   0.67717   1.000
    O570    O    0.21413   0.25572   0.65586   1.000
    O571    O    0.23567   0.33070   0.68509   1.000
    O572    O    0.71412   0.25572   0.65586   1.000
    O573    O    0.73567   0.33070   0.68509   1.000
    O574    O    0.17781   0.21777   0.69629   1.000
    O575    O    0.67780   0.21777   0.69631   1.000
    O576    O    0.96064   0.66510   0.66385   1.000
    O577    O    0.98374   0.73766   0.69541   1.000
    O578    O    0.46065   0.66510   0.66385   1.000
    O579    O    0.48375   0.73766   0.69541   1.000
    O580    O    0.63279   0.73354   0.67311   1.000
    O581    O    0.60782   0.66227   0.69023   1.000
    O582    O    0.13280   0.73354   0.67311   1.000
    O583    O    0.10783   0.66227   0.69023   1.000
    O584    O    0.92290   0.62803   0.70247   1.000
    O585    O    0.42291   0.62803   0.70244   1.000
    O586    O    0.92235   0.36620   0.70550   1.000
    O587    O    0.42236   0.36620   0.70550   1.000
    O588    O    0.17102   0.76745   0.71935   1.000
    O589    O    0.67101   0.76745   0.71935   1.000
    O590    O    0.34188   0.19346   0.69735   1.000
    O591    O    0.84187   0.19346   0.69735   1.000
    O592    O    0.08781   0.59845   0.70997   1.000
    O593    O    0.58780   0.59845   0.70997   1.000
    O594    O    0.37579   0.22061   0.73969   1.000
    O595    O    0.87578   0.22061   0.73969   1.000
    O596    O    0.75263   0.39768   0.71562   1.000
    O597    O    0.25264   0.39768   0.71566   1.000
    O598    O    0.12169   0.62398   0.75291   1.000
    O599    O    0.62168   0.62398   0.75291   1.000
    O600    O    0.22018   0.36865   0.75415   1.000
    O601    O    0.72017   0.36865   0.75415   1.000
    O602    O    0.50211   0.80241   0.72797   1.000
    O603    O    0.00210   0.80241   0.72797   1.000
    O604    O    0.46829   0.77433   0.76484   1.000
    O605    O    0.96828   0.77433   0.76484   1.000
    O606    O    0.14601   0.18811   0.73607   1.000
    O607    O    0.16272   0.25525   0.76549   1.000
    O608    O    0.64600   0.18811   0.73609   1.000
    O609    O    0.66271   0.25525   0.76551   1.000
    O610    O    0.39035   0.59838   0.74102   1.000
    O611    O    0.40795   0.66404   0.77203   1.000
    O612    O    0.89034   0.59838   0.74105   1.000
    O613    O    0.90794   0.66405   0.77206   1.000
    O614    O    0.95500   0.39501   0.74974   1.000
    O615    O    0.93692   0.32947   0.76816   1.000
    O616    O    0.45500   0.39501   0.74974   1.000
    O617    O    0.43693   0.32947   0.76816   1.000
    O618    O    0.70431   0.79368   0.76354   1.000
    O619    O    0.68449   0.72965   0.78217   1.000
    O620    O    0.20432   0.79368   0.76354   1.000
    O621    O    0.18450   0.72965   0.78217   1.000
    O622    O    0.91402   0.25609   0.78482   1.000
    O623    O    0.89207   0.19064   0.79533   1.000
    O624    O    0.41403   0.25609   0.78482   1.000
    O625    O    0.39208   0.19064   0.79533   1.000
    O626    O    0.16015   0.65744   0.79861   1.000
    O627    O    0.13672   0.59297   0.80862   1.000
    O628    O    0.66014   0.65744   0.79861   1.000
    O629    O    0.63671   0.59297   0.80862   1.000
    O630    O    0.68354   0.33115   0.79412   1.000
    O631    O    0.70370   0.39928   0.81475   1.000
    O632    O    0.18355   0.33115   0.79412   1.000
    O633    O    0.20370   0.39928   0.81475   1.000
    O634    O    0.95358   0.29220   0.83269   1.000
    O635    O    0.45358   0.29220   0.83269   1.000
    O636    O    0.14524   0.29306   0.83636   1.000
    O637    O    0.64523   0.29306   0.83636   1.000
    O638    O    0.43023   0.73778   0.80287   1.000
    O639    O    0.45156   0.80374   0.82592   1.000
    O640    O    0.93022   0.73779   0.80287   1.000
    O641    O    0.95155   0.80374   0.82592   1.000
    O642    O    0.39100   0.70071   0.84372   1.000
    O643    O    0.89099   0.70071   0.84372   1.000
    O644    O    0.20017   0.69220   0.84689   1.000
    O645    O    0.70016   0.69220   0.84689   1.000
    O646    O    0.48521   0.33143   0.88350   1.000
    O647    O    0.47529   0.25256   0.88756   1.000
    O648    O    0.98520   0.33143   0.88350   1.000
    O649    O    0.97528   0.25256   0.88756   1.000
    O650    O    0.61413   0.25280   0.88000   1.000
    O651    O    0.62288   0.33218   0.89838   1.000
    O652    O    0.11413   0.25280   0.88000   1.000
    O653    O    0.12289   0.33218   0.89838   1.000
    O654    O    0.35951   0.66091   0.88721   1.000
    O655    O    0.36938   0.73982   0.90610   1.000
    O656    O    0.85950   0.66091   0.88721   1.000
    O657    O    0.86937   0.73982   0.90610   1.000
    O658    O    0.73123   0.73156   0.89814   1.000
    O659    O    0.72222   0.65229   0.90164   1.000
    O660    O    0.23124   0.73156   0.89814   1.000
    O661    O    0.22222   0.65229   0.90164   1.000
    O662    O    0.07481   0.20470   0.93534   1.000
    O663    O    0.57480   0.20470   0.93534   1.000
    O664    O    0.32252   0.61056   0.94459   1.000
    O665    O    0.82251   0.61056   0.94459   1.000
    O666    O    0.01261   0.20500   0.94478   1.000
    O667    O    0.51261   0.20500   0.94478   1.000
    O668    O    0.10233   0.01207   0.92576   1.000
    O669    O    0.60233   0.01207   0.92577   1.000
    O670    O    0.60599   0.87339   0.93069   1.000
    O671    O    0.10600   0.87339   0.93069   1.000
    O672    O    0.76153   0.60645   0.95740   1.000
    O673    O    0.26154   0.60645   0.95740   1.000
    O674    O    0.23747   0.10659   0.94665   1.000
    O675    O    0.73746   0.10659   0.94666   1.000
    O676    O    0.73962   0.96835   0.95473   1.000
    O677    O    0.23962   0.96835   0.95473   1.000
    O678    O    0.58804   0.94405   0.94593   1.000
    O679    O    0.56639   0.02136   0.96425   1.000
    O680    O    0.08805   0.94405   0.94594   1.000
    O681    O    0.06640   0.02136   0.96427   1.000
    O682    O    0.06826   0.87260   0.97110   1.000
    O683    O    0.56825   0.87260   0.97110   1.000
    O684    O    0.75478   0.04192   0.96796   1.000
    O685    O    0.25479   0.04192   0.96796   1.000
    O686    O    0.36793   0.42256   0.98535   1.000
    O687    O    0.86793   0.42256   0.98535   1.000
    O688    O    0.54668   0.12303   0.98482   1.000
    O689    O    0.04669   0.12303   0.98483   1.000
    O690    O    0.87006   0.28476   0.98970   1.000
    O691    O    0.37007   0.28476   0.98970   1.000
    O692    O    0.34892   0.35305   0.99047   1.000
    O693    O    0.32352   0.42775   0.99129   1.000
    O694    O    0.84891   0.35305   0.99047   1.000
    O695    O    0.82351   0.42775   0.99129   1.000
    O696    O    0.97595   0.71076   0.99337   1.000
    O697    O    0.47595   0.71076   0.99337   1.000
    O698    O    0.29833   0.52647   0.99525   1.000
    O699    O    0.79832   0.52647   0.99525   1.000
    O700    O    0.54758   0.79816   0.99702   1.000
    O701    O    0.04759   0.79816   0.99702   1.000
    O702    O    0.47932   0.57312   0.99693   1.000
    O703    O    0.97932   0.57312   0.99693   1.000
    O704    O    0.49775   0.64389   0.99756   1.000
    O705    O    0.52227   0.71955   0.99805   1.000
    O706    O    0.99774   0.64389   0.99756   1.000
    O707    O    0.02227   0.71955   0.99805   1.000
    O708    O    0.04764   0.29843   0.99427   1.000
    O709    O    0.54763   0.29843   0.99427   1.000
    O710    O    0.29762   0.70156   0.00569   1.000
    O711    O    0.79762   0.70156   0.00569   1.000
loop_
    _geom_bond_atom_site_label_1
    _geom_bond_atom_site_label_2
    _geom_bond_distance
    _geom_bond_site_symmetry_2
    _ccdc_geom_bond_type
    C266   O328      0.73163      .   S
    C272   O328      0.73163      .   S
    C266   O329      0.70103      .   S
    C268   O329      0.70103      .   S
    C266   O330      0.69998  1_554   S
    C264   O330      0.69998      .   S
    C44    O331      0.54065      .   S
    C174   O331      0.54065      .   S
    C45    O332      0.54066      .   S
    C175   O332      0.54066      .   S
    C273   O333      0.73163      .   S
    C267   O333      0.73163      .   S
    C273   O334      0.72816      .   S
    C275   O334      0.72816      .   S
    C273   O335      0.68541  1_554   S
    C281   O335      0.68541      .   S
    C272   O336      0.72817      .   S
    C274   O336      0.72817      .   S
    C272   O337      0.68541  1_554   S
    C280   O337      0.68541      .   S
    C271   O338      0.69090      .   S
    C269   O338      0.69090      .   S
    C271   O339      0.54436      .   S
    C103   O339      0.54436      .   S
    C271   O340      0.67331  1_554   S
    C293   O340      0.67331      .   S
    C270   O341      0.69090      .   S
    C268   O341      0.69090      .   S
    C270   O342      0.54436      .   S
    C102   O342      0.54436      .   S
    C270   O343      0.67331  1_554   S
    C292   O343      0.67331      .   S
    C269   O344      0.70103      .   S
    C267   O344      0.70103      .   S
    C269   O345      0.54858      .   S
    C101   O345      0.54858      .   S
    C268   O346      0.54858      .   S
    C100   O346      0.54858      .   S
    C267   O347      0.69998  1_554   S
    C265   O347      0.69998      .   S
    C2     O348      1.02403      .   S
    C288   O348      1.02403      .   S
    C2     O349      1.05732      .   S
    C307   O349      1.05732  1_655   S
    C2     O350      1.02507      .   S
    C296   O350      1.02507      .   S
    C2     O351      1.03009  1_554   S
    C309   O351      1.03009  1_655   S
    C2     O352      1.05950  1_554   S
    C300   O352      1.05950      .   S
    C3     O353      1.02403      .   S
    C289   O353      1.02403      .   S
    C3     O354      1.05717      .   S
    C306   O354      1.05717      .   S
    C3     O355      1.02508      .   S
    C297   O355      1.02508      .   S
    C3     O356      1.02998  1_554   S
    C308   O356      1.02998      .   S
    C3     O357      1.05950  1_554   S
    C301   O357      1.05950      .   S
    C289   O358      0.67457      .   S
    C175   O358      0.67457      .   S
    C289   O359      0.67455      .   S
    C183   O359      0.67455  1_556   S
    C288   O360      0.67457      .   S
    C174   O360      0.67457      .   S
    C288   O361      0.67456      .   S
    C182   O361      0.67456  1_656   S
    C176   O362      0.69386      .   S
    C174   O362      0.69386      .   S
    C176   O363      0.54426      .   S
    C46    O363      0.54426      .   S
    C176   O364      0.70027      .   S
    C178   O364      0.70027  1_556   S
    C177   O365      0.69385      .   S
    C175   O365      0.69385      .   S
    C177   O366      0.54425      .   S
    C47    O366      0.54425      .   S
    C177   O367      0.70028      .   S
    C179   O367      0.70028  1_556   S
    C4     O368      1.02993      .   S
    C294   O368      1.02993      .   S
    C4     O369      1.04459      .   S
    C326   O369      1.04459      .   S
    C4     O370      1.02732      .   S
    C318   O370      1.02732      .   S
    C4     O371      1.03756  1_554   S
    C320   O371      1.03756      .   S
    C4     O372      1.05049  1_554   S
    C314   O372      1.05049      .   S
    C5     O373      1.02993      .   S
    C295   O373      1.02993      .   S
    C5     O374      1.04460      .   S
    C327   O374      1.04460      .   S
    C5     O375      1.02733      .   S
    C319   O375      1.02733      .   S
    C5     O376      1.03756  1_554   S
    C321   O376      1.03756      .   S
    C5     O377      1.05047  1_554   S
    C315   O377      1.05047      .   S
    C294   O378      0.65149      .   S
    C276   O378      0.65149  1_545   S
    C294   O379      0.67462  1_554   S
    C278   O379      0.67462      .   S
    C295   O380      0.65149      .   S
    C277   O380      0.65149  1_545   S
    C295   O381      0.67462  1_554   S
    C279   O381      0.67462      .   S
    C190   O382      0.69384  1_545   S
    C192   O382      0.69384      .   S
    C190   O383      0.54471  1_455   S
    C57    O383      0.54471      .   S
    C190   O384      0.67467      .   S
    C290   O384      0.67467  1_556   S
    C191   O385      0.69385  1_545   S
    C193   O385      0.69385      .   S
    C191   O386      0.54459      .   S
    C56    O386      0.54459      .   S
    C191   O387      0.67472      .   S
    C291   O387      0.67472  1_556   S
    C193   O388      0.54495      .   S
    C58    O388      0.54495      .   S
    C193   O389      0.70165      .   S
    C185   O389      0.70165  1_556   S
    C192   O390      0.54507  1_455   S
    C59    O390      0.54507      .   S
    C192   O391      0.70164      .   S
    C184   O391      0.70164  1_556   S
    C274   O392      0.73972      .   S
    C276   O392      0.73972      .   S
    C274   O393      0.54496      .   S
    C104   O393      0.54496      .   S
    C275   O394      0.73971      .   S
    C277   O394      0.73971      .   S
    C275   O395      0.54496      .   S
    C105   O395      0.54496      .   S
    C277   O396      0.52187  1_545   S
    C107   O396      0.52187      .   S
    C276   O397      0.52206  1_545   S
    C106   O397      0.52206      .   S
    C298   O398      0.63746      .   S
    C112   O398      0.63746      .   S
    C298   O399      1.05078      .   S
    C0     O399      1.05078  1_556   S
    C299   O400      0.63746      .   S
    C113   O400      0.63746      .   S
    C299   O401      1.05078      .   S
    C1     O401      1.05078  1_556   S
    C316   O402      0.63661      .   S
    C282   O402      0.63661      .   S
    C316   O403      1.05930      .   S
    C6     O403      1.05930  1_556   S
    C317   O404      0.63668      .   S
    C283   O404      0.63668      .   S
    C317   O405      1.05930      .   S
    C7     O405      1.05930  1_556   S
    C306   O406      0.63633      .   S
    C196   O406      0.63633      .   S
    C307   O407      0.63633      .   S
    C197   O407      0.63633      .   S
    C304   O408      0.63971      .   S
    C196   O408      0.63971      .   S
    C304   O409      1.03728      .   S
    C1     O409      1.03728  1_556   S
    C305   O410      0.63972      .   S
    C197   O410      0.63972      .   S
    C305   O411      1.03738  1_655   S
    C0     O411      1.03738  1_556   S
    C326   O412      0.63785      .   S
    C286   O412      0.63785      .   S
    C327   O413      0.63785      .   S
    C287   O413      0.63785      .   S
    C324   O414      0.63828      .   S
    C286   O414      0.63828      .   S
    C324   O415      1.02887      .   S
    C6     O415      1.02887  1_556   S
    C325   O416      0.63816      .   S
    C287   O416      0.63816      .   S
    C325   O417      1.02926      .   S
    C7     O417      1.02926  1_556   S
    C296   O418      0.63800      .   S
    C112   O418      0.63800      .   S
    C297   O419      0.63799      .   S
    C113   O419      0.63799      .   S
    C318   O420      0.64049      .   S
    C282   O420      0.64049      .   S
    C319   O421      0.64053      .   S
    C283   O421      0.64053      .   S
    C197   O422      0.74890      .   S
    C157   O422      0.74890      .   S
    C196   O423      0.74890      .   S
    C156   O423      0.74890      .   S
    C112   O424      0.74895      .   S
    C114   O424      0.74895      .   S
    C113   O425      0.74896      .   S
    C115   O425      0.74896      .   S
    C282   O426      0.74897      .   S
    C256   O426      0.74897      .   S
    C283   O427      0.74885      .   S
    C257   O427      0.74885      .   S
    C286   O428      0.74774      .   S
    C232   O428      0.74774      .   S
    C287   O429      0.74825      .   S
    C233   O429      0.74825      .   S
    C8     O430      0.54466      .   S
    C116   O430      0.54466      .   S
    C9     O431      0.54465      .   S
    C117   O431      0.54465      .   S
    C93    O432      0.54434      .   S
    C259   O432      0.54434      .   S
    C92    O433      0.54434      .   S
    C258   O433      0.54434      .   S
    C33    O434      0.54463      .   S
    C159   O434      0.54463      .   S
    C32    O435      0.54463      .   S
    C158   O435      0.54463      .   S
    C76    O436      0.54480      .   S
    C234   O436      0.54480      .   S
    C77    O437      0.54481      .   S
    C235   O437      0.54481      .   S
    C156   O438      0.70144      .   S
    C158   O438      0.70144      .   S
    C156   O439      0.70155      .   S
    C154   O439      0.70155      .   S
    C157   O440      0.70144      .   S
    C159   O440      0.70144      .   S
    C157   O441      0.70155      .   S
    C155   O441      0.70155      .   S
    C115   O442      0.70141      .   S
    C117   O442      0.70141      .   S
    C115   O443      0.70052      .   S
    C125   O443      0.70052      .   S
    C114   O444      0.70140      .   S
    C116   O444      0.70140      .   S
    C114   O445      0.70052      .   S
    C124   O445      0.70052      .   S
    C117   O446      0.69588      .   S
    C119   O446      0.69588      .   S
    C116   O447      0.69588      .   S
    C118   O447      0.69588      .   S
    C256   O448      0.70158      .   S
    C258   O448      0.70158      .   S
    C256   O449      0.70134      .   S
    C254   O449      0.70134      .   S
    C257   O450      0.70158      .   S
    C259   O450      0.70158      .   S
    C257   O451      0.70133      .   S
    C255   O451      0.70133      .   S
    C232   O452      0.70151      .   S
    C234   O452      0.70151      .   S
    C232   O453      0.70107      .   S
    C230   O453      0.70107      .   S
    C233   O454      0.70141      .   S
    C235   O454      0.70141      .   S
    C233   O455      0.70065      .   S
    C231   O455      0.70065      .   S
    C259   O456      0.69620      .   S
    C261   O456      0.69620      .   S
    C258   O457      0.69620      .   S
    C260   O457      0.69620      .   S
    C159   O458      0.69662      .   S
    C161   O458      0.69662      .   S
    C158   O459      0.69662      .   S
    C160   O459      0.69662      .   S
    C234   O460      0.69612      .   S
    C236   O460      0.69612      .   S
    C235   O461      0.69612      .   S
    C237   O461      0.69612      .   S
    C30    O462      0.54469      .   S
    C154   O462      0.54469      .   S
    C31    O463      0.54470      .   S
    C155   O463      0.54470      .   S
    C74    O464      0.54449      .   S
    C230   O464      0.54449      .   S
    C75    O465      0.54448      .   S
    C231   O465      0.54448      .   S
    C155   O466      0.69512      .   S
    C153   O466      0.69512      .   S
    C154   O467      0.69512      .   S
    C152   O467      0.69512      .   S
    C15    O468      0.54445      .   S
    C125   O468      0.54445      .   S
    C14    O469      0.54445      .   S
    C124   O469      0.54445      .   S
    C230   O470      0.69529      .   S
    C228   O470      0.69529      .   S
    C231   O471      0.69529      .   S
    C229   O471      0.69529      .   S
    C91    O472      0.54465      .   S
    C255   O472      0.54465      .   S
    C90    O473      0.54465      .   S
    C254   O473      0.54465      .   S
    C124   O474      0.69566      .   S
    C122   O474      0.69566      .   S
    C125   O475      0.69565      .   S
    C123   O475      0.69565      .   S
    C254   O476      0.69567      .   S
    C252   O476      0.69567      .   S
    C255   O477      0.69567      .   S
    C253   O477      0.69567      .   S
    C118   O478      0.54512      .   S
    C10    O478      0.54512      .   S
    C118   O479      0.70265      .   S
    C120   O479      0.70265      .   S
    C119   O480      0.54512      .   S
    C11    O480      0.54512      .   S
    C119   O481      0.70265      .   S
    C121   O481      0.70265      .   S
    C260   O482      0.54506      .   S
    C95    O482      0.54506      .   S
    C260   O483      0.70252      .   S
    C250   O483      0.70252      .   S
    C261   O484      0.54518  1_655   S
    C94    O484      0.54518      .   S
    C261   O485      0.70251      .   S
    C251   O485      0.70251      .   S
    C161   O486      0.54497      .   S
    C35    O486      0.54497      .   S
    C161   O487      0.70302      .   S
    C151   O487      0.70302      .   S
    C160   O488      0.54497      .   S
    C34    O488      0.54497      .   S
    C160   O489      0.70302      .   S
    C150   O489      0.70302      .   S
    C236   O490      0.54501      .   S
    C78    O490      0.54501      .   S
    C236   O491      0.70290      .   S
    C226   O491      0.70290      .   S
    C237   O492      0.54501      .   S
    C79    O492      0.54501      .   S
    C237   O493      0.70290      .   S
    C227   O493      0.70290      .   S
    C152   O494      0.70266      .   S
    C150   O494      0.70266      .   S
    C152   O495      0.54548      .   S
    C28    O495      0.54548      .   S
    C153   O496      0.70266      .   S
    C151   O496      0.70266      .   S
    C153   O497      0.54548      .   S
    C29    O497      0.54548      .   S
    C228   O498      0.70207      .   S
    C226   O498      0.70207      .   S
    C228   O499      0.54487      .   S
    C72    O499      0.54487      .   S
    C229   O500      0.70207      .   S
    C227   O500      0.70207      .   S
    C229   O501      0.54488      .   S
    C73    O501      0.54488      .   S
    C123   O502      0.70218      .   S
    C121   O502      0.70218      .   S
    C123   O503      0.54530      .   S
    C13    O503      0.54530      .   S
    C122   O504      0.70218      .   S
    C120   O504      0.70218      .   S
    C122   O505      0.54530      .   S
    C12    O505      0.54530      .   S
    C151   O506      0.74212      .   S
    C129   O506      0.74212      .   S
    C150   O507      0.74213      .   S
    C128   O507      0.74213      .   S
    C120   O508      0.74194      .   S
    C126   O508      0.74194      .   S
    C121   O509      0.74194      .   S
    C127   O509      0.74194      .   S
    C252   O510      0.70238      .   S
    C250   O510      0.70238      .   S
    C252   O511      0.54553      .   S
    C88    O511      0.54553      .   S
    C253   O512      0.70239      .   S
    C251   O512      0.70239      .   S
    C253   O513      0.54553      .   S
    C89    O513      0.54553      .   S
    C250   O514      0.74234      .   S
    C223   O514      0.74234      .   S
    C251   O515      0.74244  1_655   S
    C222   O515      0.74244      .   S
    C226   O516      0.74190      .   S
    C220   O516      0.74190      .   S
    C227   O517      0.74190      .   S
    C221   O517      0.74190      .   S
    C129   O518      0.70654      .   S
    C127   O518      0.70654      .   S
    C129   O519      0.70087      .   S
    C131   O519      0.70087      .   S
    C128   O520      0.70654      .   S
    C126   O520      0.70654      .   S
    C128   O521      0.70087      .   S
    C130   O521      0.70087      .   S
    C126   O522      0.70068      .   S
    C136   O522      0.70068      .   S
    C127   O523      0.70068      .   S
    C137   O523      0.70068      .   S
    C223   O524      0.70644      .   S
    C221   O524      0.70644      .   S
    C223   O525      0.70043      .   S
    C224   O525      0.70043      .   S
    C222   O526      0.70644      .   S
    C220   O526      0.70644      .   S
    C222   O527      0.70053      .   S
    C225   O527      0.70053  1_655   S
    C220   O528      0.70075      .   S
    C218   O528      0.70075      .   S
    C221   O529      0.70075      .   S
    C219   O529      0.70075      .   S
    C17    O530      0.54557      .   S
    C131   O530      0.54557      .   S
    C16    O531      0.54557      .   S
    C130   O531      0.54557      .   S
    C130   O532      0.70079      .   S
    C132   O532      0.70079      .   S
    C131   O533      0.70079      .   S
    C133   O533      0.70079      .   S
    C137   O534      0.54556      .   S
    C19    O534      0.54556      .   S
    C137   O535      0.70039      .   S
    C135   O535      0.70039      .   S
    C136   O536      0.54556      .   S
    C18    O536      0.54556      .   S
    C136   O537      0.70039      .   S
    C134   O537      0.70039      .   S
    C70    O538      0.54557      .   S
    C224   O538      0.54557      .   S
    C71    O539      0.54556      .   S
    C225   O539      0.54556      .   S
    C225   O540      0.70051  1_655   S
    C214   O540      0.70051      .   S
    C224   O541      0.70063      .   S
    C215   O541      0.70063      .   S
    C219   O542      0.54556      .   S
    C69    O542      0.54556      .   S
    C219   O543      0.70091      .   S
    C217   O543      0.70091      .   S
    C218   O544      0.54556      .   S
    C68    O544      0.54556      .   S
    C218   O545      0.70091      .   S
    C216   O545      0.70091      .   S
    C133   O546      0.70645      .   S
    C135   O546      0.70645      .   S
    C133   O547      0.74192      .   S
    C139   O547      0.74192      .   S
    C132   O548      0.70645      .   S
    C134   O548      0.70645      .   S
    C132   O549      0.74192      .   S
    C138   O549      0.74192      .   S
    C135   O550      0.74233      .   S
    C163   O550      0.74233      .   S
    C134   O551      0.74233      .   S
    C162   O551      0.74233      .   S
    C214   O552      0.70656      .   S
    C216   O552      0.70656      .   S
    C214   O553      0.74229  1_455   S
    C209   O553      0.74229      .   S
    C215   O554      0.70655      .   S
    C217   O554      0.70655      .   S
    C215   O555      0.74199      .   S
    C208   O555      0.74199      .   S
    C217   O556      0.74208      .   S
    C239   O556      0.74208      .   S
    C216   O557      0.74209      .   S
    C238   O557      0.74209      .   S
    C36    O558      0.54555      .   S
    C164   O558      0.54555      .   S
    C37    O559      0.54555      .   S
    C165   O559      0.54555      .   S
    C64    O560      0.54532      .   S
    C210   O560      0.54532      .   S
    C65    O561      0.54532      .   S
    C211   O561      0.54532      .   S
    C21    O562      0.54482      .   S
    C141   O562      0.54482      .   S
    C20    O563      0.54482      .   S
    C140   O563      0.54482      .   S
    C81    O564      0.54552      .   S
    C241   O564      0.54552      .   S
    C80    O565      0.54510      .   S
    C240   O565      0.54510      .   S
    C138   O566      0.70207      .   S
    C140   O566      0.70207      .   S
    C138   O567      0.70290      .   S
    C148   O567      0.70290      .   S
    C139   O568      0.70207      .   S
    C141   O568      0.70207      .   S
    C139   O569      0.70290      .   S
    C149   O569      0.70290      .   S
    C162   O570      0.70239      .   S
    C164   O570      0.70239      .   S
    C162   O571      0.70254      .   S
    C172   O571      0.70254      .   S
    C163   O572      0.70239      .   S
    C165   O572      0.70239      .   S
    C163   O573      0.70254      .   S
    C173   O573      0.70254      .   S
    C164   O574      0.69532      .   S
    C166   O574      0.69532      .   S
    C165   O575      0.69566      .   S
    C167   O575      0.69566      .   S
    C209   O576      0.70218      .   S
    C211   O576      0.70218      .   S
    C209   O577      0.70266      .   S
    C207   O577      0.70266      .   S
    C208   O578      0.70217      .   S
    C210   O578      0.70217      .   S
    C208   O579      0.70266      .   S
    C206   O579      0.70266      .   S
    C239   O580      0.70259      .   S
    C241   O580      0.70259      .   S
    C239   O581      0.70308      .   S
    C249   O581      0.70308      .   S
    C238   O582      0.70259      .   S
    C240   O582      0.70259      .   S
    C238   O583      0.70308      .   S
    C248   O583      0.70308      .   S
    C211   O584      0.69563      .   S
    C213   O584      0.69563      .   S
    C210   O585      0.69524      .   S
    C212   O585      0.69524      .   S
    C141   O586      0.69532      .   S
    C143   O586      0.69532      .   S
    C140   O587      0.69532      .   S
    C142   O587      0.69532      .   S
    C240   O588      0.69559      .   S
    C242   O588      0.69559      .   S
    C241   O589      0.69559      .   S
    C243   O589      0.69559      .   S
    C26    O590      0.54502      .   S
    C148   O590      0.54502      .   S
    C27    O591      0.54501      .   S
    C149   O591      0.54501      .   S
    C86    O592      0.54497      .   S
    C248   O592      0.54497      .   S
    C87    O593      0.54498      .   S
    C249   O593      0.54498      .   S
    C148   O594      0.69613      .   S
    C146   O594      0.69613      .   S
    C149   O595      0.69613      .   S
    C147   O595      0.69613      .   S
    C43    O596      0.54516      .   S
    C173   O596      0.54516      .   S
    C42    O597      0.54505      .   S
    C172   O597      0.54505      .   S
    C248   O598      0.69662      .   S
    C246   O598      0.69662      .   S
    C249   O599      0.69662      .   S
    C247   O599      0.69662      .   S
    C172   O600      0.69616      .   S
    C170   O600      0.69616      .   S
    C173   O601      0.69616      .   S
    C171   O601      0.69616      .   S
    C63    O602      0.54513      .   S
    C206   O602      0.54513      .   S
    C62    O603      0.54526      .   S
    C207   O603      0.54526  1_655   S
    C206   O604      0.69578      .   S
    C204   O604      0.69578      .   S
    C207   O605      0.69578      .   S
    C205   O605      0.69578      .   S
    C166   O606      0.54472      .   S
    C38    O606      0.54472      .   S
    C166   O607      0.70160      .   S
    C168   O607      0.70160      .   S
    C167   O608      0.54465      .   S
    C39    O608      0.54465      .   S
    C167   O609      0.70134      .   S
    C169   O609      0.70134      .   S
    C212   O610      0.54453      .   S
    C66    O610      0.54453      .   S
    C212   O611      0.70084      .   S
    C202   O611      0.70084      .   S
    C213   O612      0.54445      .   S
    C67    O612      0.54445      .   S
    C213   O613      0.70052      .   S
    C203   O613      0.70052      .   S
    C143   O614      0.54449      .   S
    C23    O614      0.54449      .   S
    C143   O615      0.70065      .   S
    C145   O615      0.70065      .   S
    C142   O616      0.54450      .   S
    C22    O616      0.54450      .   S
    C142   O617      0.70065      .   S
    C144   O617      0.70065      .   S
    C243   O618      0.54470      .   S
    C83    O618      0.54470      .   S
    C243   O619      0.70155      .   S
    C245   O619      0.70155      .   S
    C242   O620      0.54469      .   S
    C82    O620      0.54469      .   S
    C242   O621      0.70155      .   S
    C244   O621      0.70155      .   S
    C147   O622      0.70142      .   S
    C145   O622      0.70142      .   S
    C147   O623      0.54484      .   S
    C25    O623      0.54484      .   S
    C146   O624      0.70142      .   S
    C144   O624      0.70142      .   S
    C146   O625      0.54484      .   S
    C24    O625      0.54484      .   S
    C246   O626      0.70145      .   S
    C244   O626      0.70145      .   S
    C246   O627      0.54461      .   S
    C84    O627      0.54461      .   S
    C247   O628      0.70143      .   S
    C245   O628      0.70143      .   S
    C247   O629      0.54460      .   S
    C85    O629      0.54460      .   S
    C171   O630      0.70158      .   S
    C169   O630      0.70158      .   S
    C171   O631      0.54435      .   S
    C41    O631      0.54435      .   S
    C170   O632      0.70158      .   S
    C168   O632      0.70158      .   S
    C170   O633      0.54435      .   S
    C40    O633      0.54435      .   S
    C145   O634      0.74832      .   S
    C199   O634      0.74832      .   S
    C144   O635      0.74831      .   S
    C198   O635      0.74831      .   S
    C168   O636      0.74884      .   S
    C194   O636      0.74884      .   S
    C169   O637      0.74884      .   S
    C195   O637      0.74884      .   S
    C204   O638      0.70141      .   S
    C202   O638      0.70141      .   S
    C204   O639      0.54472      .   S
    C60    O639      0.54472      .   S
    C205   O640      0.70141      .   S
    C203   O640      0.70141      .   S
    C205   O641      0.54471      .   S
    C61    O641      0.54471      .   S
    C202   O642      0.74846      .   S
    C200   O642      0.74846      .   S
    C203   O643      0.74845      .   S
    C201   O643      0.74845      .   S
    C244   O644      0.74892      .   S
    C284   O644      0.74892      .   S
    C245   O645      0.74891      .   S
    C285   O645      0.74891      .   S
    C198   O646      0.63800      .   S
    C308   O646      0.63800      .   S
    C198   O647      0.63786      .   S
    C310   O647      0.63786      .   S
    C199   O648      0.63801      .   S
    C309   O648      0.63801      .   S
    C199   O649      0.63785      .   S
    C311   O649      0.63785      .   S
    C195   O650      0.64051      .   S
    C303   O650      0.64051      .   S
    C195   O651      0.63637      .   S
    C301   O651      0.63637      .   S
    C194   O652      0.64051      .   S
    C302   O652      0.64051      .   S
    C194   O653      0.63637      .   S
    C300   O653      0.63637      .   S
    C200   O654      0.63810      .   S
    C312   O654      0.63810      .   S
    C200   O655      0.63776      .   S
    C314   O655      0.63776      .   S
    C201   O656      0.63810      .   S
    C313   O656      0.63810      .   S
    C201   O657      0.63777      .   S
    C315   O657      0.63777      .   S
    C285   O658      0.63972      .   S
    C321   O658      0.63972      .   S
    C285   O659      0.63635      .   S
    C323   O659      0.63635      .   S
    C284   O660      0.63972      .   S
    C320   O660      0.63972      .   S
    C284   O661      0.63635      .   S
    C322   O661      0.63635      .   S
    C302   O662      1.02722      .   S
    C0     O662      1.02722      .   S
    C303   O663      1.02722      .   S
    C1     O663      1.02722      .   S
    C312   O664      1.02504      .   S
    C6     O664      1.02504      .   S
    C313   O665      1.02502      .   S
    C7     O665      1.02502      .   S
    C311   O666      1.04484  1_655   S
    C0     O666      1.04484      .   S
    C310   O667      1.04468      .   S
    C1     O667      1.04468      .   S
    C54    O668      0.54514      .   S
    C188   O668      0.54514  1_565   S
    C55    O669      0.54491      .   S
    C189   O669      0.54491  1_565   S
    C53    O670      0.54497      .   S
    C187   O670      0.54497      .   S
    C52    O671      0.54497      .   S
    C186   O671      0.54497      .   S
    C323   O672      1.05725      .   S
    C7     O672      1.05725      .   S
    C322   O673      1.05724      .   S
    C6     O673      1.05724      .   S
    C110   O674      0.54508      .   S
    C280   O674      0.54508      .   S
    C111   O675      0.54499      .   S
    C281   O675      0.54499      .   S
    C109   O676      0.54460      .   S
    C279   O676      0.54460      .   S
    C108   O677      0.54460      .   S
    C278   O677      0.54460      .   S
    C189   O678      0.69419      .   S
    C187   O678      0.69419      .   S
    C189   O679      0.67451  1_565   S
    C291   O679      0.67451      .   S
    C188   O680      0.69417      .   S
    C186   O680      0.69417      .   S
    C188   O681      0.67447  1_565   S
    C290   O681      0.67447      .   S
    C186   O682      0.70215      .   S
    C184   O682      0.70215      .   S
    C187   O683      0.70215      .   S
    C185   O683      0.70215      .   S
    C281   O684      0.69384      .   S
    C279   O684      0.69384  1_565   S
    C280   O685      0.69384      .   S
    C278   O685      0.69384  1_565   S
    C96    O686      0.54346      .   S
    C262   O686      0.54346      .   S
    C97    O687      0.54346      .   S
    C263   O687      0.54346      .   S
    C291   O688      1.02994      .   S
    C1     O688      1.02994      .   S
    C290   O689      1.02994      .   S
    C0     O689      1.02994      .   S
    C99    O690      0.54426      .   S
    C265   O690      0.54426      .   S
    C98    O691      0.54426      .   S
    C264   O691      0.54426      .   S
    C262   O692      0.69385      .   S
    C264   O692      0.69385      .   S
    C262   O693      0.67457      .   S
    C292   O693      0.67457      .   S
    C263   O694      0.69385      .   S
    C265   O694      0.69385      .   S
    C263   O695      0.67457      .   S
    C293   O695      0.67457      .   S
    C49    O696      0.54402      .   S
    C181   O696      0.54402      .   S
    C48    O697      0.54402      .   S
    C180   O697      0.54402      .   S
    C292   O698      1.02404      .   S
    C6     O698      1.02404      .   S
    C293   O699      1.02404      .   S
    C7     O699      1.02404      .   S
    C185   O700      0.73727      .   S
    C179   O700      0.73727      .   S
    C184   O701      0.73727      .   S
    C178   O701      0.73727      .   S
    C50    O702      0.54346      .   S
    C183   O702      0.54346      .   S
    C51    O703      0.54361      .   S
    C182   O703      0.54361      .   S
    C180   O704      0.69308      .   S
    C183   O704      0.69308      .   S
    C180   O705      0.70008      .   S
    C179   O705      0.70008      .   S
    C181   O706      0.69308      .   S
    C182   O706      0.69308      .   S
    C181   O707      0.70023  1_655   S
    C178   O707      0.70023      .   S
    C0     O708      1.41314      .   S
    C2     O708      1.41314  1_554   S
    C1     O709      1.41314      .   S
    C3     O709      1.41314  1_554   S
    C4     O710      1.41314      .   S
    C6     O710      1.41314  1_556   S
    C5     O711      1.41314      .   S
    C7     O711      1.41314  1_556   S
