# CIF file generated by openbabel 2.4.90, see http://openbabel.sf.net
data_I
_chemical_name_common ''
_cell_length_a 23.285
_cell_length_b 13.976
_cell_length_c 15.782
_cell_angle_alpha 96.063
_cell_angle_beta 89.996
_cell_angle_gamma 89.977
_space_group_name_H-M_alt 'P 1'
_space_group_name_Hall 'P 1'
loop_
    _symmetry_equiv_pos_as_xyz
    x,y,z
loop_
    _atom_site_label
    _atom_site_type_symbol
    _atom_site_fract_x
    _atom_site_fract_y
    _atom_site_fract_z
    _atom_site_occupancy
    N0      N    0.29750   0.29735   0.49444   1.000
    N1      N    0.79749   0.29735   0.49444   1.000
    N2      N    0.29736   0.20133   0.00294   1.000
    N3      N    0.04736   0.79833   0.99535   1.000
    N4      N    0.54749   0.70263   0.50551   1.000
    N5      N    0.04749   0.70263   0.50551   1.000
    N6      N    0.79736   0.20133   0.00294   1.000
    N7      N    0.54736   0.79833   0.99535   1.000
    Zr8     Zr   0.79750   0.70193   0.00547   1.000
    O9      O    0.79767   0.53292   0.00228   1.000
    O10     O    0.88337   0.70180   0.84004   1.000
    O11     O    0.88443   0.70335   0.17001   1.000
    O12     O    0.71066   0.69967   0.84084   1.000
    O13     O    0.71151   0.70358   0.17093   1.000
    O14     O    0.79725   0.87054   0.00726   1.000
    Zr15    Zr   0.04751   0.29807   0.99447   1.000
    O16     O    0.96152   0.29642   0.82902   1.000
    O17     O    0.13444   0.29664   0.82994   1.000
    O18     O    0.96067   0.30033   0.15912   1.000
    O19     O    0.13339   0.29819   0.15990   1.000
    O20     O    0.04767   0.46700   0.99725   1.000
    O21     O    0.04727   0.12937   0.99228   1.000
    Zr22    Zr   0.54751   0.29807   0.99447   1.000
    O23     O    0.46068   0.30033   0.15912   1.000
    O24     O    0.63444   0.29664   0.82994   1.000
    O25     O    0.46153   0.29642   0.82902   1.000
    O26     O    0.54726   0.12937   0.99228   1.000
    O27     O    0.63338   0.29818   0.15990   1.000
    O28     O    0.54767   0.46700   0.99725   1.000
    Zr29    Zr   0.29750   0.70193   0.00547   1.000
    O30     O    0.38443   0.70335   0.17001   1.000
    O31     O    0.21067   0.69967   0.84083   1.000
    O32     O    0.21152   0.70358   0.17092   1.000
    O33     O    0.29767   0.53292   0.00228   1.000
    O34     O    0.29726   0.87054   0.00725   1.000
    O35     O    0.38337   0.70180   0.84004   1.000
loop_
    _geom_bond_atom_site_label_1
    _geom_bond_atom_site_label_2
    _geom_bond_distance
    _geom_bond_site_symmetry_2
    _ccdc_geom_bond_type
    Zr8    O9        2.35735      .   S
    N6     O9        4.63531      .   S
    Zr8    O10       3.28826  1_554   S
    N5     O10       6.51841  1_455   S
    Zr8    O11       3.29105      .   S
    N5     O11       6.51657  1_455   S
    Zr8    O12       3.28998  1_554   S
    N4     O12       6.51865      .   S
    Zr8    O13       3.28847      .   S
    N4     O13       6.51773      .   S
    Zr8    O14       2.35367      .   S
    N6     O14       4.63089  1_545   S
    Zr15   O16       3.28876  1_455   S
    N1     O16       6.51823      .   S
    Zr15   O17       3.29070      .   S
    N0     O17       6.51610      .   S
    Zr15   O18       3.28986  1_456   S
    N1     O18       6.51836      .   S
    Zr15   O19       3.28846  1_556   S
    N0     O19       6.51884      .   S
    Zr15   O20       2.35674      .   S
    N3     O20       4.63402      .   S
    Zr15   O21       2.35423      .   S
    N3     O21       4.63202  1_565   S
    Zr22   O23       3.28979  1_556   S
    N0     O23       6.51831      .   S
    Zr22   O24       3.29065      .   S
    N1     O24       6.51606      .   S
    Zr22   O25       3.28869      .   S
    N0     O25       6.51816      .   S
    Zr22   O26       2.35424      .   S
    N7     O26       4.63202  1_565   S
    Zr22   O27       3.28841  1_556   S
    N1     O27       6.51879      .   S
    Zr22   O28       2.35674      .   S
    N7     O28       4.63402      .   S
    Zr29   O30       3.29102      .   S
    N4     O30       6.51654      .   S
    Zr29   O31       3.28997  1_554   S
    N5     O31       6.51868      .   S
    Zr29   O32       3.28841      .   S
    N5     O32       6.51797      .   S
    Zr29   O33       2.35735      .   S
    N2     O33       4.63531      .   S
    Zr29   O34       2.35367      .   S
    N2     O34       4.63089  1_545   S
    Zr29   O35       3.28820  1_554   S
    N4     O35       6.51828      .   S
