# CIF file generated by openbabel 2.4.90, see http://openbabel.sf.net
data_I
_chemical_name_common ''
_cell_length_a 14.233
_cell_length_b 15.7
_cell_length_c 15.696
_cell_angle_alpha 87.161
_cell_angle_beta 76.976
_cell_angle_gamma 76.979
_space_group_name_H-M_alt 'P 1'
_space_group_name_Hall 'P 1'
loop_
    _symmetry_equiv_pos_as_xyz
    x,y,z
loop_
    _atom_site_label
    _atom_site_type_symbol
    _atom_site_fract_x
    _atom_site_fract_y
    _atom_site_fract_z
    _atom_site_occupancy
    H0      H    0.28494   0.74019   0.15679   1.000
    H1      H    0.78368   0.73960   0.15821   1.000
    H2      H    0.39266   0.74595   0.00524   1.000
    H3      H    0.89263   0.74571   0.00722   1.000
    H4      H    0.31595   0.75358   0.87650   1.000
    H5      H    0.81730   0.75364   0.87765   1.000
    H6      H    0.03821   0.74990   0.05433   1.000
    H7      H    0.53842   0.74974   0.05350   1.000
    H8      H    0.23143   0.25987   0.84293   1.000
    H9      H    0.73254   0.25898   0.84272   1.000
    H10     H    0.26694   0.25415   0.99440   1.000
    H11     H    0.76819   0.25322   0.99417   1.000
    H12     H    0.13029   0.24632   0.12332   1.000
    H13     H    0.63137   0.24637   0.12315   1.000
    H14     H    0.43920   0.25136   0.94591   1.000
    H15     H    0.93865   0.25030   0.94584   1.000
    H16     H    0.13733   0.15726   0.26000   1.000
    H17     H    0.63587   0.15586   0.25984   1.000
    H18     H    0.10440   0.00590   0.25427   1.000
    H19     H    0.60469   0.00385   0.25414   1.000
    H20     H    0.24479   0.87694   0.24637   1.000
    H21     H    0.74611   0.87584   0.24640   1.000
    H22     H    0.43497   0.05408   0.24981   1.000
    H23     H    0.93391   0.05503   0.24995   1.000
    H24     H    0.34614   0.84184   0.74019   1.000
    H25     H    0.84455   0.84201   0.74069   1.000
    H26     H    0.23433   0.99278   0.74595   1.000
    H27     H    0.73307   0.99310   0.74610   1.000
    H28     H    0.30597   0.12237   0.75312   1.000
    H29     H    0.80500   0.12250   0.75296   1.000
    H30     H    0.08584   0.94638   0.74785   1.000
    H31     H    0.58708   0.94652   0.74773   1.000
    H32     H    0.39097   0.65716   0.24117   1.000
    H33     H    0.89273   0.65704   0.23960   1.000
    H34     H    0.35541   0.50574   0.24679   1.000
    H35     H    0.85707   0.50568   0.24513   1.000
    H36     H    0.49230   0.37683   0.25341   1.000
    H37     H    0.99358   0.37672   0.25313   1.000
    H38     H    0.18528   0.55395   0.24982   1.000
    H39     H    0.68450   0.55403   0.24817   1.000
    H40     H    0.34014   0.34328   0.76046   1.000
    H41     H    0.83932   0.34298   0.75980   1.000
    H42     H    0.23239   0.49477   0.75430   1.000
    H43     H    0.73141   0.49446   0.75417   1.000
    H44     H    0.30914   0.62346   0.74641   1.000
    H45     H    0.80790   0.62321   0.74653   1.000
    H46     H    0.08587   0.44571   0.74995   1.000
    H47     H    0.58688   0.44576   0.75030   1.000
    H48     H    0.27887   0.75986   0.65821   1.000
    H49     H    0.78056   0.75936   0.65664   1.000
    H50     H    0.39068   0.75426   0.50718   1.000
    H51     H    0.89104   0.75386   0.50505   1.000
    H52     H    0.31909   0.74714   0.37758   1.000
    H53     H    0.81791   0.74694   0.37630   1.000
    H54     H    0.03801   0.75211   0.55346   1.000
    H55     H    0.53797   0.75220   0.55400   1.000
    H56     H    0.48797   0.24030   0.34394   1.000
    H57     H    0.98623   0.24023   0.34255   1.000
    H58     H    0.01920   0.24604   0.49394   1.000
    H59     H    0.51914   0.24614   0.49590   1.000
    H60     H    0.37773   0.25381   0.62406   1.000
    H61     H    0.87890   0.25378   0.62299   1.000
    H62     H    0.19001   0.24991   0.44487   1.000
    H63     H    0.68864   0.25034   0.44588   1.000
    C64     C    0.25545   0.74292   0.09818   1.000
    C65     C    0.75482   0.74253   0.09924   1.000
    C66     C    0.31426   0.74667   0.01489   1.000
    C67     C    0.81429   0.74645   0.01629   1.000
    C68     C    0.27147   0.75169   0.94258   1.000
    C69     C    0.77228   0.75165   0.94349   1.000
    C70     C    0.17044   0.75364   0.95587   1.000
    C71     C    0.67133   0.75361   0.95605   1.000
    C72     C    0.11692   0.74875   0.04159   1.000
    C73     C    0.61710   0.74858   0.04148   1.000
    C74     C    0.17425   0.25711   0.90161   1.000
    C75     C    0.67530   0.25665   0.90144   1.000
    C76     C    0.19368   0.25333   0.98485   1.000
    C77     C    0.69480   0.25288   0.98464   1.000
    C78     C    0.11759   0.24827   0.05727   1.000
    C79     C    0.61862   0.24838   0.05712   1.000
    C80     C    0.02409   0.24635   0.04410   1.000
    C81     C    0.52492   0.24708   0.04403   1.000
    C82     C    0.01052   0.25132   0.95843   1.000
    C83     C    0.51125   0.25198   0.95842   1.000
    C84     C    0.19582   0.09854   0.25716   1.000
    C85     C    0.69486   0.09752   0.25700   1.000
    C86     C    0.17810   0.01538   0.25342   1.000
    C87     C    0.67811   0.01401   0.25336   1.000
    C88     C    0.25663   0.94294   0.24820   1.000
    C89     C    0.75725   0.94209   0.24827   1.000
    C90     C    0.35117   0.95600   0.24619   1.000
    C91     C    0.85140   0.95601   0.24625   1.000
    C92     C    0.36248   0.04157   0.25103   1.000
    C93     C    0.86170   0.04188   0.25113   1.000
    C94     C    0.37374   0.90079   0.74256   1.000
    C95     C    0.87233   0.90090   0.74286   1.000
    C96     C    0.31238   0.98377   0.74637   1.000
    C97     C    0.81113   0.98392   0.74652   1.000
    C98     C    0.35198   0.05654   0.75103   1.000
    C99     C    0.85088   0.05662   0.75102   1.000
    C100    C    0.45214   0.04399   0.75231   1.000
    C101    C    0.95103   0.04397   0.75235   1.000
    C102    C    0.00757   0.95852   0.74736   1.000
    C103    C    0.50881   0.95859   0.74724   1.000
    C104    C    0.44828   0.59847   0.24333   1.000
    C105    C    0.94982   0.59834   0.24250   1.000
    C106    C    0.42881   0.51528   0.24703   1.000
    C107    C    0.93032   0.51516   0.24612   1.000
    C108    C    0.50504   0.44284   0.25143   1.000
    C109    C    0.00000   0.44273   0.25100   1.000
    C110    C    0.09974   0.45584   0.25345   1.000
    C111    C    0.59876   0.45594   0.25263   1.000
    C112    C    0.11339   0.54143   0.24862   1.000
    C113    C    0.61241   0.54153   0.24770   1.000
    C114    C    0.36962   0.40191   0.75753   1.000
    C115    C    0.86872   0.40164   0.75711   1.000
    C116    C    0.31080   0.48514   0.75364   1.000
    C117    C    0.80981   0.48484   0.75340   1.000
    C118    C    0.35361   0.55742   0.74843   1.000
    C119    C    0.85248   0.55718   0.74835   1.000
    C120    C    0.45464   0.54416   0.74647   1.000
    C121    C    0.95352   0.54401   0.74632   1.000
    C122    C    0.00715   0.45837   0.75116   1.000
    C123    C    0.50816   0.45850   0.75148   1.000
    C124    C    0.25131   0.75748   0.59922   1.000
    C125    C    0.75227   0.75716   0.59802   1.000
    C126    C    0.31265   0.75377   0.51624   1.000
    C127    C    0.81292   0.75346   0.51471   1.000
    C128    C    0.27308   0.74911   0.44343   1.000
    C129    C    0.77248   0.74894   0.44239   1.000
    C130    C    0.17297   0.74771   0.45597   1.000
    C131    C    0.67225   0.74765   0.45568   1.000
    C132    C    0.11626   0.75269   0.54140   1.000
    C133    C    0.61629   0.75267   0.54139   1.000
    C134    C    0.42900   0.24302   0.40230   1.000
    C135    C    0.92778   0.24311   0.40132   1.000
    C136    C    0.44574   0.24685   0.48584   1.000
    C137    C    0.94553   0.24684   0.48440   1.000
    C138    C    0.36660   0.25189   0.55781   1.000
    C139    C    0.86702   0.25193   0.55698   1.000
    C140    C    0.27247   0.25380   0.54389   1.000
    C141    C    0.77248   0.25396   0.54396   1.000
    C142    C    0.26220   0.24883   0.45800   1.000
    C143    C    0.76114   0.24913   0.45837   1.000
    N144    N    0.15804   0.74309   0.11150   1.000
    N145    N    0.65747   0.74275   0.11183   1.000
    N146    N    0.08348   0.25693   0.88842   1.000
    N147    N    0.58437   0.25697   0.88836   1.000
    N148    N    0.28676   0.11161   0.25675   1.000
    N149    N    0.78543   0.11141   0.25684   1.000
    N150    N    0.47113   0.88820   0.74219   1.000
    N151    N    0.96975   0.88821   0.74242   1.000
    N152    N    0.04052   0.61147   0.24292   1.000
    N153    N    0.53924   0.61157   0.24286   1.000
    N154    N    0.46703   0.38861   0.75729   1.000
    N155    N    0.96613   0.38843   0.75685   1.000
    N156    N    0.15394   0.75776   0.61180   1.000
    N157    N    0.65480   0.75760   0.61134   1.000
    N158    N    0.33845   0.24316   0.38844   1.000
    N159    N    0.83683   0.24344   0.38829   1.000
loop_
    _geom_bond_atom_site_label_1
    _geom_bond_atom_site_label_2
    _geom_bond_distance
    _geom_bond_site_symmetry_2
    _ccdc_geom_bond_type
    H2     C66       1.08931      .   S
    H3     C67       1.08916      .   S
    C66    C64       1.39091      .   S
    C66    C68       1.39512  1_554   S
    C67    C65       1.39076      .   S
    C67    C69       1.39526  1_554   S
    C73    H7        1.08893      .   S
    C73    N145      1.34545      .   S
    C73    C71       1.39661  1_554   S
    C72    H6        1.08887      .   S
    C72    N144      1.34573      .   S
    C72    C70       1.39666  1_554   S
    C81    C79       1.39898      .   S
    C81    C83       1.39651  1_554   S
    C80    C78       1.39896      .   S
    C80    C82       1.39693  1_554   S
    C79    H13       1.08955      .   S
    C79    C77       1.39488  1_554   S
    C78    H12       1.08962      .   S
    C78    C76       1.39511  1_554   S
    C64    N144      1.35405      .   S
    C64    H0        1.08921      .   S
    C65    N145      1.35402      .   S
    C65    H1        1.08912      .   S
    H33    C105      1.08934      .   S
    H32    C104      1.08919      .   S
    C105   N152      1.35387  1_655   S
    C105   C107      1.39095      .   S
    N153   C104      1.35420      .   S
    N153   C113      1.34577      .   S
    N152   C112      1.34575      .   S
    C104   C106      1.39073      .   S
    H35    C107      1.08938      .   S
    C107   C109      1.34165  1_655   S
    C90    C88       1.39921      .   S
    C90    C92       1.39623  1_565   S
    C91    C89       1.39884      .   S
    C91    C93       1.39615  1_565   S
    H20    C88       1.08940      .   S
    H21    C89       1.08947      .   S
    H34    C106      1.08917      .   S
    C106   C108      1.39475      .   S
    C113   H39       1.08891      .   S
    C113   C111      1.39630      .   S
    C88    C86       1.39454  1_565   S
    C89    C87       1.39477  1_565   S
    C112   H38       1.08883      .   S
    C112   C110      1.39650      .   S
    H22    C92       1.08891      .   S
    H23    C93       1.08893      .   S
    C109   H37       1.05899  1_455   S
    C109   C110      1.48862      .   S
    C92    N148      1.34567      .   S
    C93    N149      1.34545      .   S
    C108   C111      1.39895      .   S
    C108   H36       1.08951      .   S
    C87    H19       1.08930      .   S
    C87    C85       1.39062      .   S
    C86    H18       1.08922      .   S
    C86    C84       1.39069      .   S
    N148   C84       1.35413      .   S
    N149   C85       1.35436      .   S
    C85    H17       1.08916      .   S
    C84    H16       1.08932      .   S
    H57    C135      1.08920      .   S
    H56    C134      1.08931      .   S
    H53    C129      1.08949      .   S
    H52    C128      1.08951      .   S
    N159   C135      1.35411      .   S
    N159   C143      1.34560      .   S
    N158   C134      1.35406      .   S
    N158   C142      1.34533      .   S
    C135   C137      1.38944      .   S
    C134   C136      1.39093      .   S
    C129   C131      1.39913      .   S
    C129   C127      1.39487      .   S
    C128   C130      1.39894      .   S
    C128   C126      1.39482      .   S
    H62    C142      1.08889      .   S
    H63    C143      1.08889      .   S
    C131   C133      1.39633      .   S
    C130   C132      1.39633      .   S
    C142   C140      1.39618      .   S
    C143   C141      1.39636      .   S
    C137   H58       1.08929  1_655   S
    C137   C139      1.39569      .   S
    C136   H59       1.08880      .   S
    C136   C138      1.39506      .   S
    H51    C127      1.08929      .   S
    H50    C126      1.08915      .   S
    C127   C125      1.39089      .   S
    C126   C124      1.39076      .   S
    C133   H55       1.08894      .   S
    C133   N157      1.34565      .   S
    C132   H54       1.08883      .   S
    C132   N156      1.34537      .   S
    C140   C138      1.39884      .   S
    C141   C139      1.39903      .   S
    C139   H61       1.08955      .   S
    C138   H60       1.08943      .   S
    C125   N157      1.35403      .   S
    C125   H49       1.08914      .   S
    C124   N156      1.35406      .   S
    C124   H48       1.08918      .   S
    H24    C94       1.08907      .   S
    H25    C95       1.08915      .   S
    N150   C94       1.35411      .   S
    N150   C103      1.34539      .   S
    N151   C95       1.35412      .   S
    N151   C102      1.34517  1_655   S
    C94    C96       1.39099      .   S
    C95    C97       1.39080      .   S
    H26    C96       1.08928      .   S
    H27    C97       1.08913      .   S
    C121   C119      1.39915      .   S
    C121   C122      1.39625  1_655   S
    C96    C98       1.39479  1_565   S
    H44    C118      1.08944      .   S
    C120   C118      1.39917      .   S
    C120   C123      1.39642      .   S
    C97    C99       1.39463  1_565   S
    H45    C119      1.08943      .   S
    C103   H31       1.08878      .   S
    C103   C100      1.39613  1_565   S
    C102   H30       1.08889      .   S
    C102   C101      1.39596  1_465   S
    C119   C117      1.39476      .   S
    C118   C116      1.39488      .   S
    H46    C122      1.08892      .   S
    H47    C123      1.08885      .   S
    C99    C101      1.39888      .   S
    C99    H29       1.08947      .   S
    C98    C100      1.39904      .   S
    C98    H28       1.08951      .   S
    C122   N155      1.34548  1_455   S
    C123   N154      1.34565      .   S
    C117   H43       1.08917      .   S
    C117   C115      1.39059      .   S
    C116   H42       1.08964      .   S
    C116   C114      1.39086      .   S
    N155   C115      1.35396      .   S
    C115   H41       1.08935      .   S
    N154   C114      1.35393      .   S
    C114   H40       1.08926      .   S
    H9     C75       1.08912      .   S
    H8     C74       1.08930      .   S
    H4     C68       1.08947      .   S
    H5     C69       1.08948      .   S
    N147   C75       1.35414      .   S
    N147   C83       1.34571      .   S
    N146   C74       1.35433      .   S
    N146   C82       1.34568      .   S
    C75    C77       1.39080      .   S
    C74    C76       1.39098      .   S
    C68    C70       1.39917      .   S
    C69    C71       1.39900      .   S
    H15    C82       1.08835  1_655   S
    H14    C83       1.08891      .   S
    C77    H11       1.08920      .   S
    C76    H10       1.08929      .   S
