# CIF file generated by openbabel 2.4.90, see http://openbabel.sf.net
data_I
_chemical_name_common ''
_cell_length_a 14.233
_cell_length_b 15.7
_cell_length_c 15.696
_cell_angle_alpha 87.161
_cell_angle_beta 76.976
_cell_angle_gamma 76.979
_space_group_name_H-M_alt 'P 1'
_space_group_name_Hall 'P 1'
loop_
    _symmetry_equiv_pos_as_xyz
    x,y,z
loop_
    _atom_site_label
    _atom_site_type_symbol
    _atom_site_fract_x
    _atom_site_fract_y
    _atom_site_fract_z
    _atom_site_occupancy
    Zn0     Zn   0.56351   0.76314   0.73674   1.000
    Zn1     Zn   0.31269   0.23695   0.26311   1.000
    Zn2     Zn   0.81088   0.23688   0.26300   1.000
    Zn3     Zn   0.06975   0.73691   0.23687   1.000
    Zn4     Zn   0.56819   0.73689   0.23689   1.000
    Zn5     Zn   0.05401   0.26312   0.76307   1.000
    Zn6     Zn   0.55537   0.26311   0.76306   1.000
    Zn7     Zn   0.06175   0.76317   0.73683   1.000
    C8      C    0.11838   0.76010   0.88186   1.000
    C9      C    0.61988   0.76017   0.88166   1.000
    C10     C    0.43930   0.24119   0.11820   1.000
    C11     C    0.93848   0.23986   0.11812   1.000
    O12     O    0.59241   0.10358   0.75211   1.000
    O13     O    0.16840   0.30392   0.27032   1.000
    O14     O    0.66694   0.30418   0.27028   1.000
    O15     O    0.26927   0.39694   0.25531   1.000
    C16     C    0.43982   0.88184   0.23973   1.000
    C17     C    0.94091   0.88266   0.23980   1.000
    C18     C    0.50055   0.11834   0.75851   1.000
    C19     C    0.99947   0.11827   0.75849   1.000
    C20     C    0.18525   0.38177   0.26006   1.000
    C21     C    0.68437   0.38180   0.25860   1.000
    C22     C    0.00539   0.61811   0.73985   1.000
    C23     C    0.50672   0.61817   0.73989   1.000
    C24     C    0.12461   0.74152   0.38160   1.000
    C25     C    0.62326   0.74145   0.38170   1.000
    C26     C    0.18290   0.26020   0.61719   1.000
    C27     C    0.68385   0.26035   0.61816   1.000
    O28     O    0.16885   0.77042   0.80399   1.000
    O29     O    0.67069   0.77040   0.80392   1.000
    O30     O    0.02923   0.75517   0.89696   1.000
    O31     O    0.53069   0.75534   0.89642   1.000
    O32     O    0.45669   0.22961   0.19585   1.000
    O33     O    0.95518   0.22966   0.19604   1.000
    O34     O    0.35479   0.24767   0.10340   1.000
    O35     O    0.85450   0.24464   0.10284   1.000
    O36     O    0.42785   0.80400   0.22954   1.000
    O37     O    0.93002   0.80439   0.22965   1.000
    O38     O    0.02196   0.89890   0.24459   1.000
    O39     O    0.52158   0.89676   0.24456   1.000
    O40     O    0.44448   0.19593   0.77031   1.000
    O41     O    0.94338   0.19590   0.77021   1.000
    O42     O    0.09127   0.10352   0.75210   1.000
    O43     O    0.76887   0.39660   0.25214   1.000
    O44     O    0.45632   0.69600   0.72950   1.000
    O45     O    0.95482   0.69591   0.72957   1.000
    O46     O    0.09454   0.60315   0.74476   1.000
    O47     O    0.59589   0.60307   0.74481   1.000
    O48     O    0.18068   0.72974   0.30396   1.000
    O49     O    0.67905   0.72964   0.30397   1.000
    O50     O    0.03275   0.74792   0.39633   1.000
    O51     O    0.53140   0.74783   0.39675   1.000
    O52     O    0.19368   0.27035   0.69551   1.000
    O53     O    0.69581   0.27051   0.69601   1.000
    O54     O    0.10189   0.25538   0.60080   1.000
    O55     O    0.60209   0.25547   0.60323   1.000
    Ts56    Ts   0.53272   0.80483   0.73856   1.000
    Ts57    Ts   0.59394   0.76130   0.69494   1.000
    Ts58    Ts   0.30405   0.19517   0.26099   1.000
    Ts59    Ts   0.32128   0.23902   0.30489   1.000
    Ts60    Ts   0.80240   0.19505   0.26095   1.000
    Ts61    Ts   0.81953   0.23906   0.30476   1.000
    Ts62    Ts   0.09918   0.73897   0.19508   1.000
    Ts63    Ts   0.06001   0.69510   0.23889   1.000
    Ts64    Ts   0.59795   0.73885   0.19520   1.000
    Ts65    Ts   0.55854   0.69512   0.23888   1.000
    Ts66    Ts   0.06384   0.26106   0.80485   1.000
    Ts67    Ts   0.02472   0.30489   0.76100   1.000
    Ts68    Ts   0.56504   0.26106   0.80483   1.000
    Ts69    Ts   0.52592   0.30494   0.76114   1.000
    Ts70    Ts   0.03109   0.80485   0.73869   1.000
    Ts71    Ts   0.09248   0.76137   0.69515   1.000
    Og72    Og   0.13573   0.75795   0.90653   1.000
    Og73    Og   0.63703   0.75798   0.90646   1.000
    Og74    Og   0.46784   0.24315   0.09348   1.000
    Og75    Og   0.96702   0.24202   0.09345   1.000
    Og76    Og   0.41027   0.90656   0.24188   1.000
    Og77    Og   0.91107   0.90711   0.24195   1.000
    Og78    Og   0.48441   0.09356   0.75644   1.000
    Og79    Og   0.98333   0.09350   0.75644   1.000
    Og80    Og   0.15674   0.40646   0.25786   1.000
    Og81    Og   0.65583   0.40651   0.25661   1.000
    Og82    Og   0.98810   0.59341   0.74201   1.000
    Og83    Og   0.48936   0.59350   0.74208   1.000
    Og84    Og   0.14073   0.74358   0.40639   1.000
    Og85    Og   0.63959   0.74352   0.40636   1.000
    Og86    Og   0.21276   0.25807   0.59276   1.000
    Og87    Og   0.71339   0.25822   0.59343   1.000
loop_
    _geom_bond_atom_site_label_1
    _geom_bond_atom_site_label_2
    _geom_bond_distance
    _geom_bond_site_symmetry_2
    _ccdc_geom_bond_type
    O35    C11       1.25652      .   S
    O34    C10       1.25679      .   S
    C11    O33       1.29321      .   S
    C10    O32       1.29361      .   S
    O32    Zn1       2.06362      .   S
    O33    Zn2       2.06625      .   S
    O36    Zn4       2.06322      .   S
    O36    C16       1.29363      .   S
    O37    Zn3       2.05692  1_655   S
    O37    C17       1.29455      .   S
    Zn3    O48       2.06685      .   S
    Zn4    O49       2.06575      .   S
    C16    O39       1.25670      .   S
    C17    O38       1.25504  1_655   S
    O43    C21       1.25671      .   S
    O15    C20       1.25658      .   S
    C21    O14       1.29378      .   S
    C20    O13       1.29316      .   S
    Zn2    O14       2.06353      .   S
    Zn1    O13       2.06641      .   S
    O48    C24       1.29367      .   S
    O49    C25       1.29339      .   S
    C24    O50       1.25685      .   S
    C25    O51       1.25673      .   S
    O54    C26       1.25550      .   S
    O55    C27       1.25682      .   S
    C26    O52       1.29440      .   S
    C27    O53       1.29339      .   S
    O52    Zn5       2.05633      .   S
    O53    Zn6       2.06422      .   S
    O44    Zn0       2.06560      .   S
    O44    C23       1.29322      .   S
    O45    Zn7       2.06371  1_655   S
    O45    C22       1.29344  1_655   S
    Zn0    O29       2.06572      .   S
    Zn7    O28       2.06440      .   S
    C22    O46       1.25671      .   S
    C23    O47       1.25680      .   S
    O42    C19       1.25600  1_455   S
    O12    C18       1.25693      .   S
    C19    O41       1.29397      .   S
    C18    O40       1.29339      .   S
    Zn6    O40       2.06725      .   S
    Zn5    O41       2.06475  1_455   S
    O29    C9        1.29344      .   S
    O28    C8        1.29352      .   S
    C9     O31       1.25692      .   S
    C8     O30       1.25665      .   S
    Zn0    Ts56      0.69872      .   S
    Zn0    Ts57      0.69787      .   S
    Zn1    Ts58      0.69774      .   S
    Zn1    Ts59      0.69713      .   S
    Zn2    Ts60      0.69739      .   S
    Zn2    Ts61      0.69752      .   S
    Zn3    Ts62      0.69781      .   S
    Zn3    Ts63      0.69865      .   S
    Zn4    Ts64      0.69817      .   S
    Zn4    Ts65      0.69758      .   S
    Zn5    Ts66      0.69849      .   S
    Zn5    Ts67      0.69696      .   S
    Zn6    Ts68      0.69736      .   S
    Zn6    Ts69      0.69828      .   S
    Zn7    Ts70      0.69787      .   S
    Zn7    Ts71      0.69808      .   S
    C8     Og72      0.50014      .   S
    C9     Og73      0.49995      .   S
    C10    Og74      0.49996      .   S
    C11    Og75      0.50013      .   S
    C16    Og76      0.50002      .   S
    C17    Og77      0.50017      .   S
    C18    Og78      0.50006      .   S
    C19    Og79      0.49991      .   S
    C20    Og80      0.50019      .   S
    C21    Og81      0.50000      .   S
    C22    Og82      0.50002  1_455   S
    C23    Og83      0.50020      .   S
    C24    Og84      0.49991      .   S
    C25    Og85      0.50008      .   S
    C26    Og86      0.50018      .   S
    C27    Og87      0.50002      .   S
