# CIF file generated by openbabel 2.4.90, see http://openbabel.sf.net
data_I
_chemical_name_common ''
_cell_length_a 14.233
_cell_length_b 15.7
_cell_length_c 15.696
_cell_angle_alpha 87.161
_cell_angle_beta 76.976
_cell_angle_gamma 76.979
_space_group_name_H-M_alt 'P 1'
_space_group_name_Hall 'P 1'
loop_
    _symmetry_equiv_pos_as_xyz
    x,y,z
loop_
    _atom_site_label
    _atom_site_type_symbol
    _atom_site_fract_x
    _atom_site_fract_y
    _atom_site_fract_z
    _atom_site_occupancy
    C0      C    0.11838   0.76010   0.88186   1.000
    C1      C    0.61988   0.76017   0.88166   1.000
    C2      C    0.43930   0.24119   0.11820   1.000
    C3      C    0.93848   0.23986   0.11812   1.000
    C4      C    0.43982   0.88184   0.23973   1.000
    C5      C    0.94091   0.88266   0.23980   1.000
    C6      C    0.50055   0.11834   0.75851   1.000
    C7      C    0.99947   0.11827   0.75849   1.000
    C8      C    0.18525   0.38177   0.26006   1.000
    C9      C    0.68437   0.38180   0.25860   1.000
    C10     C    0.00539   0.61811   0.73985   1.000
    C11     C    0.50672   0.61817   0.73989   1.000
    C12     C    0.12461   0.74152   0.38160   1.000
    C13     C    0.62326   0.74145   0.38170   1.000
    C14     C    0.18290   0.26020   0.61719   1.000
    C15     C    0.68385   0.26035   0.61816   1.000
