# CIF file generated by openbabel 2.4.90, see http://openbabel.sf.net
data_I
_chemical_name_common ''
_cell_length_a 13.144
_cell_length_b 13.013
_cell_length_c 23.511
_cell_angle_alpha 90
_cell_angle_beta 90
_cell_angle_gamma 90
_space_group_name_H-M_alt 'P 1'
_space_group_name_Hall 'P 1'
loop_
    _symmetry_equiv_pos_as_xyz
    x,y,z
loop_
    _atom_site_label
    _atom_site_type_symbol
    _atom_site_fract_x
    _atom_site_fract_y
    _atom_site_fract_z
    _atom_site_occupancy
    N0      N    0.50000   0.50001   0.74914   1.000
    N1      N    0.50000   0.50001   0.25083   1.000
    Zr2     Zr   0.00000   0.50002   0.49999   1.000
    Zr3     Zr   0.50000   0.00000   0.00000   1.000
    O4      O    0.50000   0.13878   0.92969   1.000
    O5      O    0.50000   0.86123   0.92969   1.000
    O6      O    0.50000   0.13878   0.07030   1.000
    O7      O    0.50000   0.86123   0.07030   1.000
    O8      O    0.13866   0.50002   0.56984   1.000
    O9      O    0.86134   0.50001   0.56984   1.000
    O10     O    0.13866   0.50001   0.43013   1.000
    O11     O    0.86134   0.50002   0.43013   1.000
loop_
    _geom_bond_atom_site_label_1
    _geom_bond_atom_site_label_2
    _geom_bond_distance
    _geom_bond_site_symmetry_2
    _ccdc_geom_bond_type
    Zr3    O4        2.44817  1_554   S
    N0     O4        6.33380      .   S
    Zr3    O5        2.44808  1_544   S
    N0     O5        6.33364      .   S
    Zr3    O6        2.44802      .   S
    N1     O6        6.33351      .   S
    Zr3    O7        2.44794  1_545   S
    N1     O7        6.33337      .   S
    Zr2    O8        2.45337      .   S
    N0     O8        6.35038      .   S
    Zr2    O9        2.45330  1_455   S
    N0     O9        6.35045      .   S
    Zr2    O10       2.45339      .   S
    N1     O10       6.35046      .   S
    Zr2    O11       2.45340  1_455   S
    N1     O11       6.35047      .   S
