# CIF file generated by openbabel 2.4.90, see http://openbabel.sf.net
data_I
_chemical_name_common ''
_cell_length_a 13.444
_cell_length_b 13.791
_cell_length_c 27.651
_cell_angle_alpha 90.014
_cell_angle_beta 89.914
_cell_angle_gamma 89.064
_space_group_name_H-M_alt 'P 1'
_space_group_name_Hall 'P 1'
loop_
    _symmetry_equiv_pos_as_xyz
    x,y,z
loop_
    _atom_site_label
    _atom_site_type_symbol
    _atom_site_fract_x
    _atom_site_fract_y
    _atom_site_fract_z
    _atom_site_occupancy
    Cd0     Cd   0.89378   0.54090   0.18676   1.000
    Cd1     Cd   0.12247   0.78279   0.06739   1.000
    Cd2     Cd   0.48803   0.33173   0.87490   1.000
    Cd3     Cd   0.37893   0.95942   0.81057   1.000
    Cd4     Cd   0.61262   0.70981   0.92955   1.000
    Cd5     Cd   0.50632   0.83495   0.62613   1.000
    Cd6     Cd   0.60810   0.45771   0.69060   1.000
    Cd7     Cd   0.37871   0.21482   0.57025   1.000
    Cd8     Cd   0.00920   0.66445   0.37269   1.000
    Cd9     Cd   0.11644   0.03972   0.31206   1.000
    Cd10    Cd   0.87863   0.28897   0.42953   1.000
    Cd11    Cd   0.00042   0.83351   0.87345   1.000
    Cd12    Cd   0.10729   0.45658   0.81092   1.000
    Cd13    Cd   0.87740   0.21389   0.93134   1.000
    Cd14    Cd   0.51053   0.67055   0.12680   1.000
    Cd15    Cd   0.62117   0.04390   0.18980   1.000
    Cd16    Cd   0.38547   0.29339   0.07195   1.000
    Cd17    Cd   0.49424   0.16396   0.37490   1.000
    Cd18    Cd   0.39256   0.54186   0.31150   1.000
    Cd19    Cd   0.62240   0.78480   0.43151   1.000
    Cd20    Cd   0.98940   0.33660   0.62525   1.000
    Cd21    Cd   0.88539   0.96096   0.68750   1.000
    Cd22    Cd   0.12181   0.71226   0.56910   1.000
    Cd23    Cd   0.00000   0.16217   0.12569   1.000
