# CIF file generated by openbabel 2.4.90, see http://openbabel.sf.net
data_I
_chemical_name_common ''
_cell_length_a 13.444
_cell_length_b 13.791
_cell_length_c 27.651
_cell_angle_alpha 90.014
_cell_angle_beta 89.914
_cell_angle_gamma 89.064
_space_group_name_H-M_alt 'P 1'
_space_group_name_Hall 'P 1'
loop_
    _symmetry_equiv_pos_as_xyz
    x,y,z
loop_
    _atom_site_label
    _atom_site_type_symbol
    _atom_site_fract_x
    _atom_site_fract_y
    _atom_site_fract_z
    _atom_site_occupancy
    C0      C    0.00000   0.16217   0.12569   1.000
    C1      C    0.89378   0.54090   0.18676   1.000
    C2      C    0.12247   0.78279   0.06739   1.000
    C3      C    0.48803   0.33173   0.87490   1.000
    C4      C    0.37893   0.95942   0.81057   1.000
    C5      C    0.61262   0.70981   0.92955   1.000
    C6      C    0.50632   0.83495   0.62613   1.000
    C7      C    0.60810   0.45771   0.69060   1.000
    C8      C    0.37871   0.21482   0.57025   1.000
    C9      C    0.00920   0.66445   0.37269   1.000
    C10     C    0.11644   0.03972   0.31206   1.000
    C11     C    0.87863   0.28897   0.42953   1.000
    C12     C    0.00042   0.83351   0.87345   1.000
    C13     C    0.10729   0.45658   0.81092   1.000
    C14     C    0.87740   0.21389   0.93134   1.000
    C15     C    0.51053   0.67055   0.12680   1.000
    C16     C    0.62117   0.04390   0.18980   1.000
    C17     C    0.38547   0.29339   0.07195   1.000
    C18     C    0.49424   0.16396   0.37490   1.000
    C19     C    0.39256   0.54186   0.31150   1.000
    C20     C    0.62240   0.78480   0.43151   1.000
    C21     C    0.98940   0.33660   0.62525   1.000
    C22     C    0.88539   0.96096   0.68750   1.000
    C23     C    0.12181   0.71226   0.56910   1.000
    C24     C    0.93157   0.39015   0.16611   1.000
    C25     C    0.77028   0.08254   0.16350   1.000
    C26     C    0.08659   0.93777   0.08536   1.000
    C27     C    0.23379   0.24245   0.08536   1.000
    C28     C    0.03286   0.68028   0.11000   1.000
    C29     C    0.90424   0.20322   0.01000   1.000
    C30     C    0.08773   0.08889   0.23751   1.000
    C31     C    0.43206   0.10163   0.83373   1.000
    C32     C    0.25587   0.41120   0.83625   1.000
    C33     C    0.54638   0.56784   0.91521   1.000
    C34     C    0.72338   0.26385   0.91906   1.000
    C35     C    0.52760   0.80136   0.87844   1.000
    C36     C    0.39853   0.29973   0.99230   1.000
    C37     C    0.57747   0.40854   0.76481   1.000
    C38     C    0.55877   0.60372   0.66864   1.000
    C39     C    0.73716   0.91412   0.66377   1.000
    C40     C    0.44364   0.06964   0.58510   1.000
    C41     C    0.27319   0.76452   0.58195   1.000
    C42     C    0.46252   0.30684   0.62050   1.000
    C43     C    0.60310   0.79293   0.51083   1.000
    C44     C    0.41319   0.91382   0.73573   1.000
    C45     C    0.06583   0.89554   0.33331   1.000
    C46     C    0.24203   0.58518   0.33620   1.000
    C47     C    0.94326   0.43129   0.41284   1.000
    C48     C    0.77612   0.73544   0.41708   1.000
    C49     C    0.96539   0.19386   0.38039   1.000
    C50     C    0.10448   0.70050   0.48988   1.000
    C51     C    0.92575   0.59153   0.26022   1.000
    C52     C    0.05367   0.60220   0.83176   1.000
    C53     C    0.23233   0.91185   0.83555   1.000
    C54     C    0.93865   0.06788   0.91387   1.000
    C55     C    0.76152   0.76542   0.91458   1.000
    C56     C    0.96145   0.30643   0.88100   1.000
    C57     C    0.07881   0.78701   0.99028   1.000
    C58     C    0.91578   0.91298   0.76236   1.000
    C59     C    0.57341   0.89899   0.16690   1.000
    C60     C    0.74110   0.57980   0.16213   1.000
    C61     C    0.44767   0.43768   0.08600   1.000
    C62     C    0.27882   0.75377   0.08864   1.000
    C63     C    0.47273   0.19967   0.12131   1.000
    C64     C    0.60164   0.70202   0.00886   1.000
    C65     C    0.42488   0.59183   0.23772   1.000
    C66     C    0.44057   0.39551   0.33325   1.000
    C67     C    0.26405   0.08481   0.33753   1.000
    C68     C    0.55850   0.93032   0.41630   1.000
    C69     C    0.72717   0.23640   0.41751   1.000
    C70     C    0.53638   0.69194   0.38245   1.000
    C71     C    0.39792   0.20578   0.49097   1.000
    C72     C    0.58701   0.08954   0.26427   1.000
    C73     C    0.93557   0.10506   0.66592   1.000
    C74     C    0.75743   0.41437   0.66413   1.000
    C75     C    0.05496   0.57039   0.58488   1.000
    C76     C    0.22484   0.26602   0.58262   1.000
    C77     C    0.03525   0.80664   0.61872   1.000
    C78     C    0.89636   0.29999   0.50875   1.000
    C79     C    0.07685   0.41086   0.73607   1.000
    C80     C    0.95790   0.31293   0.15353   1.000
    C81     C    0.84912   0.10317   0.14932   1.000
    C82     C    0.05381   0.01381   0.09640   1.000
    C83     C    0.15373   0.22030   0.09719   1.000
    C84     C    0.98559   0.63174   0.13565   1.000
    C85     C    0.93314   0.19745   0.04980   1.000
    C86     C    0.06892   0.11840   0.19889   1.000
    C87     C    0.45572   0.17783   0.84770   1.000
    C88     C    0.33461   0.38839   0.85056   1.000
    C89     C    0.52236   0.48907   0.90547   1.000
    C90     C    0.64259   0.28472   0.90678   1.000
    C91     C    0.47976   0.85518   0.85512   1.000
    C92     C    0.42101   0.30113   0.95141   1.000
    C93     C    0.55744   0.37979   0.80333   1.000
    C94     C    0.53776   0.68159   0.65497   1.000
    C95     C    0.65864   0.89098   0.65029   1.000
    C96     C    0.46867   0.99030   0.59471   1.000
    C97     C    0.35272   0.78721   0.59426   1.000
    C98     C    0.50993   0.35881   0.64427   1.000
    C99     C    0.57729   0.79696   0.55124   1.000
    C100    C    0.43511   0.88554   0.69723   1.000
    C101    C    0.04374   0.81831   0.34653   1.000
    C102    C    0.16231   0.60649   0.34998   1.000
    C103    C    0.96888   0.50913   0.40225   1.000
    C104    C    0.85650   0.71448   0.40411   1.000
    C105    C    0.01492   0.14022   0.35769   1.000
    C106    C    0.07909   0.69619   0.44946   1.000
    C107    C    0.94363   0.61931   0.29916   1.000
    C108    C    0.03135   0.68019   0.84485   1.000
    C109    C    0.15464   0.88739   0.84964   1.000
    C110    C    0.96038   0.98817   0.90321   1.000
    C111    C    0.84052   0.78784   0.90128   1.000
    C112    C    0.00814   0.35946   0.85754   1.000
    C113    C    0.05734   0.79486   0.94946   1.000
    C114    C    0.93543   0.88368   0.80092   1.000
    C115    C    0.55122   0.82157   0.15398   1.000
    C116    C    0.66263   0.60819   0.14991   1.000
    C117    C    0.47170   0.51645   0.09594   1.000
    C118    C    0.35947   0.72834   0.09905   1.000
    C119    C    0.52142   0.14616   0.14440   1.000
    C120    C    0.57992   0.69940   0.04982   1.000
    C121    C    0.44467   0.62142   0.19933   1.000
    C122    C    0.46071   0.31739   0.34680   1.000
    C123    C    0.34251   0.10727   0.35137   1.000
    C124    C    0.53395   0.00958   0.40626   1.000
    C125    C    0.64716   0.21359   0.40603   1.000
    C126    C    0.48866   0.63972   0.35901   1.000
    C127    C    0.42345   0.20136   0.45053   1.000
    C128    C    0.56513   0.11604   0.30308   1.000
    C129    C    0.95747   0.18210   0.65232   1.000
    C130    C    0.83636   0.39320   0.64934   1.000
    C131    C    0.02819   0.49271   0.59505   1.000
    C132    C    0.14377   0.28746   0.59435   1.000
    C133    C    0.98606   0.85993   0.64179   1.000
    C134    C    0.92108   0.30385   0.54926   1.000
    C135    C    0.05739   0.38314   0.69732   1.000
    O136    O    0.59078   0.70071   0.02934   1.000
    O137    O    0.60713   0.70591   0.96920   1.000
    O138    O    0.91869   0.20034   0.02990   1.000
    O139    O    0.89082   0.20856   0.97067   1.000
    O140    O    0.96657   0.17981   0.08774   1.000
    O141    O    0.54523   0.68497   0.08831   1.000
    O142    O    0.10453   0.86028   0.07637   1.000
    O143    O    0.20065   0.76828   0.07801   1.000
    O144    O    0.07767   0.73154   0.08869   1.000
    O145    O    0.10064   0.78490   0.02883   1.000
    O146    O    0.30963   0.26792   0.07866   1.000
    O147    O    0.41657   0.36553   0.07897   1.000
    O148    O    0.42910   0.24653   0.09663   1.000
    O149    O    0.39200   0.29656   0.03213   1.000
    O150    O    0.19376   0.23138   0.09127   1.000
    O151    O    0.07020   0.97579   0.09088   1.000
    O152    O    0.45969   0.47706   0.09097   1.000
    O153    O    0.31915   0.74105   0.09384   1.000
    O154    O    0.49112   0.59350   0.11137   1.000
    O155    O    0.02690   0.08799   0.11105   1.000
    O156    O    0.07687   0.19123   0.11144   1.000
    O157    O    0.43500   0.69944   0.11292   1.000
    O158    O    0.00922   0.65601   0.12283   1.000
    O159    O    0.49707   0.17292   0.13286   1.000
    O160    O    0.92456   0.13267   0.13750   1.000
    O161    O    0.97895   0.23755   0.13961   1.000
    O162    O    0.03446   0.14029   0.16229   1.000
    O163    O    0.58658   0.63937   0.13835   1.000
    O164    O    0.53088   0.74606   0.14039   1.000
    O165    O    0.47760   0.64598   0.16306   1.000
    O166    O    0.93968   0.58632   0.16121   1.000
    O167    O    0.57129   0.09503   0.16710   1.000
    O168    O    0.80970   0.09285   0.15641   1.000
    O169    O    0.70187   0.59400   0.15602   1.000
    O170    O    0.94473   0.35154   0.15982   1.000
    O171    O    0.56231   0.86028   0.16044   1.000
    O172    O    0.81744   0.56035   0.17445   1.000
    O173    O    0.69572   0.06322   0.17665   1.000
    O174    O    0.91268   0.46552   0.17643   1.000
    O175    O    0.59729   0.97144   0.17835   1.000
    O176    O    0.90977   0.56622   0.22349   1.000
    O177    O    0.60409   0.06672   0.22704   1.000
    O178    O    0.07832   0.10365   0.21820   1.000
    O179    O    0.43477   0.60663   0.21852   1.000
    O180    O    0.10208   0.06431   0.27478   1.000
    O181    O    0.40872   0.56685   0.27461   1.000
    O182    O    0.93469   0.60542   0.27969   1.000
    O183    O    0.57607   0.10279   0.28368   1.000
    O184    O    0.97642   0.64188   0.33593   1.000
    O185    O    0.52968   0.14000   0.33899   1.000
    O186    O    0.41656   0.46869   0.32237   1.000
    O187    O    0.31730   0.56352   0.32385   1.000
    O188    O    0.44061   0.59079   0.33525   1.000
    O189    O    0.09113   0.96763   0.32268   1.000
    O190    O    0.19024   0.06226   0.32480   1.000
    O191    O    0.06568   0.08997   0.33487   1.000
    O192    O    0.45064   0.35645   0.34002   1.000
    O193    O    0.05478   0.85692   0.33992   1.000
    O194    O    0.20217   0.59583   0.34309   1.000
    O195    O    0.30328   0.09604   0.34445   1.000
    O196    O    0.02647   0.74138   0.35961   1.000
    O197    O    0.47748   0.24068   0.36085   1.000
    O198    O    0.08576   0.63547   0.36133   1.000
    O199    O    0.41838   0.13561   0.36313   1.000
    O200    O    0.99016   0.16704   0.36904   1.000
    O201    O    0.51252   0.66583   0.37073   1.000
    O202    O    0.98904   0.58679   0.38747   1.000
    O203    O    0.93285   0.68946   0.38840   1.000
    O204    O    0.04415   0.68032   0.41108   1.000
    O205    O    0.57070   0.18878   0.39046   1.000
    O206    O    0.51410   0.08677   0.39058   1.000
    O207    O    0.45884   0.18266   0.41271   1.000
    O208    O    0.92201   0.24142   0.40496   1.000
    O209    O    0.57939   0.73837   0.40698   1.000
    O210    O    0.95607   0.47021   0.40754   1.000
    O211    O    0.81631   0.72496   0.41060   1.000
    O212    O    0.68716   0.22499   0.41177   1.000
    O213    O    0.54623   0.96995   0.41128   1.000
    O214    O    0.91095   0.36013   0.42118   1.000
    O215    O    0.59045   0.85756   0.42391   1.000
    O216    O    0.69926   0.76012   0.42429   1.000
    O217    O    0.80290   0.26268   0.42352   1.000
    O218    O    0.88750   0.29448   0.46914   1.000
    O219    O    0.61275   0.78887   0.47117   1.000
    O220    O    0.09179   0.69835   0.46967   1.000
    O221    O    0.41068   0.20357   0.47075   1.000
    O222    O    0.11314   0.70638   0.52949   1.000
    O223    O    0.38832   0.21030   0.53061   1.000
    O224    O    0.90872   0.30192   0.52900   1.000
    O225    O    0.59020   0.79495   0.53104   1.000
    O226    O    0.95524   0.32023   0.58725   1.000
    O227    O    0.54181   0.81596   0.58868   1.000
    O228    O    0.19750   0.73839   0.57552   1.000
    O229    O    0.08838   0.64133   0.57699   1.000
    O230    O    0.07853   0.75945   0.59391   1.000
    O231    O    0.30178   0.24042   0.57644   1.000
    O232    O    0.41118   0.14223   0.57768   1.000
    O233    O    0.42062   0.26083   0.59537   1.000
    O234    O    0.31296   0.77587   0.58810   1.000
    O235    O    0.18430   0.27674   0.58848   1.000
    O236    O    0.04158   0.53155   0.58996   1.000
    O237    O    0.45616   0.02997   0.58991   1.000
    O238    O    0.42952   0.81108   0.61019   1.000
    O239    O    0.06659   0.31203   0.60980   1.000
    O240    O    0.48750   0.91262   0.61042   1.000
    O241    O    0.00879   0.41465   0.61015   1.000
    O242    O    0.01066   0.83328   0.63025   1.000
    O243    O    0.48623   0.33283   0.63238   1.000
    O244    O    0.91288   0.36490   0.63729   1.000
    O245    O    0.97343   0.25935   0.63878   1.000
    O246    O    0.02340   0.35987   0.66129   1.000
    O247    O    0.58248   0.86297   0.63821   1.000
    O248    O    0.52204   0.75827   0.64055   1.000
    O249    O    0.47072   0.86024   0.66168   1.000
    O250    O    0.93573   0.91045   0.66464   1.000
    O251    O    0.55902   0.40826   0.66744   1.000
    O252    O    0.79690   0.40379   0.65673   1.000
    O253    O    0.69790   0.90255   0.65703   1.000
    O254    O    0.94652   0.14358   0.65912   1.000
    O255    O    0.54827   0.64265   0.66180   1.000
    O256    O    0.81128   0.93754   0.67563   1.000
    O257    O    0.68277   0.43604   0.67736   1.000
    O258    O    0.91048   0.03301   0.67671   1.000
    O259    O    0.58344   0.53071   0.67962   1.000
    O260    O    0.90059   0.93697   0.72493   1.000
    O261    O    0.59278   0.43312   0.72770   1.000
    O262    O    0.42415   0.89968   0.71648   1.000
    O263    O    0.06712   0.39700   0.71670   1.000
    O264    O    0.39606   0.93662   0.77315   1.000
    O265    O    0.09207   0.43372   0.77350   1.000
    O266    O    0.92561   0.89833   0.78164   1.000
    O267    O    0.56745   0.39417   0.78407   1.000
    O268    O    0.96793   0.85859   0.83718   1.000
    O269    O    0.52273   0.35576   0.83911   1.000
    O270    O    0.40549   0.03053   0.82215   1.000
    O271    O    0.30563   0.93564   0.82306   1.000
    O272    O    0.42935   0.90730   0.83284   1.000
    O273    O    0.08048   0.52939   0.82134   1.000
    O274    O    0.18158   0.43389   0.82359   1.000
    O275    O    0.05772   0.40802   0.83423   1.000
    O276    O    0.04251   0.64120   0.83830   1.000
    O277    O    0.44389   0.13973   0.84071   1.000
    O278    O    0.19348   0.89962   0.84259   1.000
    O279    O    0.29524   0.39980   0.84340   1.000
    O280    O    0.01589   0.75685   0.85915   1.000
    O281    O    0.47188   0.25478   0.86130   1.000
    O282    O    0.07753   0.86045   0.86154   1.000
    O283    O    0.41132   0.36006   0.86273   1.000
    O284    O    0.50368   0.82827   0.86678   1.000
    O285    O    0.98480   0.33294   0.86927   1.000
    O286    O    0.92047   0.81067   0.88736   1.000
    O287    O    0.98040   0.91084   0.88833   1.000
    O288    O    0.02888   0.81418   0.91145   1.000
    O289    O    0.50520   0.41040   0.89019   1.000
    O290    O    0.56531   0.30822   0.89084   1.000
    O291    O    0.45452   0.31643   0.91315   1.000
    O292    O    0.57011   0.75558   0.90399   1.000
    O293    O    0.91942   0.26016   0.90617   1.000
    O294    O    0.80102   0.77663   0.90793   1.000
    O295    O    0.94952   0.02803   0.90854   1.000
    O296    O    0.53437   0.52845   0.91034   1.000
    O297    O    0.68299   0.27428   0.91292   1.000
    O298    O    0.90803   0.14088   0.92260   1.000
    O299    O    0.68707   0.73761   0.92206   1.000
    O300    O    0.57950   0.63882   0.92238   1.000
    O301    O    0.80039   0.23887   0.92520   1.000
    O302    O    0.06807   0.79093   0.96987   1.000
    O303    O    0.40977   0.30043   0.97186   1.000
loop_
    _geom_bond_atom_site_label_1
    _geom_bond_atom_site_label_2
    _geom_bond_distance
    _geom_bond_site_symmetry_2
    _ccdc_geom_bond_type
    C64    O136      0.58495      .   S
    C120   O136      0.58495      .   S
    C64    O137      1.10025  1_554   S
    C5     O137      1.10025      .   S
    C29    O138      0.58495      .   S
    C85    O138      0.58495      .   S
    C29    O139      1.10492  1_554   S
    C14    O139      1.10492      .   S
    C85    O140      1.16619      .   S
    C0     O140      1.16619  1_455   S
    C120   O141      1.17962      .   S
    C15    O141      1.17962      .   S
    C2     O142      1.11949      .   S
    C26    O142      1.11949      .   S
    C2     O143      1.10679      .   S
    C62    O143      1.10679      .   S
    C2     O144      1.10573      .   S
    C28    O144      1.10573      .   S
    C2     O145      1.10644      .   S
    C57    O145      1.10644  1_556   S
    C17    O146      1.09930      .   S
    C27    O146      1.09930      .   S
    C17    O147      1.10281      .   S
    C61    O147      1.10281      .   S
    C17    O148      1.10291      .   S
    C63    O148      1.10291      .   S
    C17    O149      1.10549      .   S
    C36    O149      1.10549  1_556   S
    C27    O150      0.58492      .   S
    C83    O150      0.58492      .   S
    C26    O151      0.58552      .   S
    C82    O151      0.58552  1_545   S
    C61    O152      0.58556      .   S
    C117   O152      0.58556      .   S
    C62    O153      0.58524      .   S
    C118   O153      0.58524      .   S
    C117   O154      1.17833      .   S
    C15    O154      1.17833      .   S
    C82    O155      1.15269      .   S
    C0     O155      1.15269      .   S
    C83    O156      1.18161      .   S
    C0     O156      1.18161      .   S
    C118   O157      1.15114      .   S
    C15    O157      1.15114      .   S
    C28    O158      0.58476      .   S
    C84    O158      0.58476  1_655   S
    C63    O159      0.58447      .   S
    C119   O159      0.58447      .   S
    C0     O160      1.14604  1_455   S
    C81    O160      1.14604      .   S
    C0     O161      1.13960  1_455   S
    C80    O161      1.13960      .   S
    C0     O162      1.15191      .   S
    C86    O162      1.15191      .   S
    C15    O163      1.14846      .   S
    C116   O163      1.14846      .   S
    C15    O164      1.14454      .   S
    C115   O164      1.14454      .   S
    C15    O165      1.14893      .   S
    C121   O165      1.14893      .   S
    C84    O166      1.13316      .   S
    C1     O166      1.13316      .   S
    C119   O167      1.15188      .   S
    C16    O167      1.15188      .   S
    C81    O168      0.58457      .   S
    C25    O168      0.58457      .   S
    C116   O169      0.58482      .   S
    C60    O169      0.58482      .   S
    C80    O170      0.58474      .   S
    C24    O170      0.58474      .   S
    C115   O171      0.58458      .   S
    C59    O171      0.58458      .   S
    C60    O172      1.11057      .   S
    C1     O172      1.11057      .   S
    C25    O173      1.10253      .   S
    C16    O173      1.10253      .   S
    C24    O174      1.10344      .   S
    C1     O174      1.10344      .   S
    C59    O175      1.10107      .   S
    C16    O175      1.10107  1_545   S
    C1     O176      1.09658      .   S
    C51    O176      1.09658      .   S
    C16    O177      1.09936      .   S
    C72    O177      1.09936      .   S
    C86    O178      0.58472      .   S
    C30    O178      0.58472      .   S
    C121   O179      0.58460      .   S
    C65    O179      0.58460      .   S
    C30    O180      1.10145      .   S
    C10    O180      1.10145      .   S
    C65    O181      1.09926      .   S
    C19    O181      1.09926      .   S
    C51    O182      0.58469      .   S
    C107   O182      0.58469      .   S
    C72    O183      0.58460      .   S
    C128   O183      0.58460      .   S
    C107   O184      1.15336      .   S
    C9     O184      1.15336  1_455   S
    C128   O185      1.14694      .   S
    C18    O185      1.14694      .   S
    C19    O186      1.09673      .   S
    C66    O186      1.09673      .   S
    C19    O187      1.10392      .   S
    C46    O187      1.10392      .   S
    C19    O188      1.14865      .   S
    C126   O188      1.14865      .   S
    C10    O189      1.09606  1_545   S
    C45    O189      1.09606      .   S
    C10    O190      1.10282      .   S
    C67    O190      1.10282      .   S
    C10    O191      1.15196      .   S
    C105   O191      1.15196      .   S
    C66    O192      0.58423      .   S
    C122   O192      0.58423      .   S
    C45    O193      0.58448      .   S
    C101   O193      0.58448      .   S
    C46    O194      0.58495      .   S
    C102   O194      0.58495      .   S
    C67    O195      0.58458      .   S
    C123   O195      0.58458      .   S
    C101   O196      1.14816      .   S
    C9     O196      1.14816      .   S
    C122   O197      1.14618      .   S
    C18    O197      1.14618      .   S
    C102   O198      1.14157      .   S
    C9     O198      1.14157      .   S
    C123   O199      1.14582      .   S
    C18    O199      1.14582      .   S
    C105   O200      0.58463  1_455   S
    C49    O200      0.58463      .   S
    C126   O201      0.58448      .   S
    C70    O201      0.58448      .   S
    C9     O202      1.18188  1_455   S
    C103   O202      1.18188      .   S
    C9     O203      1.16121  1_455   S
    C104   O203      1.16121      .   S
    C9     O204      1.18319      .   S
    C106   O204      1.18319      .   S
    C18    O205      1.17120      .   S
    C125   O205      1.17120      .   S
    C18    O206      1.17637      .   S
    C124   O206      1.17637      .   S
    C18    O207      1.17501      .   S
    C127   O207      1.17501      .   S
    C49    O208      1.10357      .   S
    C11    O208      1.10357      .   S
    C70    O209      1.10336      .   S
    C20    O209      1.10336      .   S
    C103   O210      0.58494      .   S
    C47    O210      0.58494      .   S
    C104   O211      0.58489      .   S
    C48    O211      0.58489      .   S
    C125   O212      0.58494      .   S
    C69    O212      0.58494      .   S
    C124   O213      0.58506  1_545   S
    C68    O213      0.58506      .   S
    C47    O214      1.10400      .   S
    C11    O214      1.10400      .   S
    C68    O215      1.10542      .   S
    C20    O215      1.10542      .   S
    C48    O216      1.10057      .   S
    C20    O216      1.10057      .   S
    C69    O217      1.09920      .   S
    C11    O217      1.09920      .   S
    C11    O218      1.10463      .   S
    C78    O218      1.10463      .   S
    C20    O219      1.10539      .   S
    C43    O219      1.10539      .   S
    C106   O220      0.58543      .   S
    C50    O220      0.58543      .   S
    C127   O221      0.58524      .   S
    C71    O221      0.58524      .   S
    C50    O222      1.10471      .   S
    C23    O222      1.10471      .   S
    C71    O223      1.10510      .   S
    C8     O223      1.10510      .   S
    C78    O224      0.58516      .   S
    C134   O224      0.58516      .   S
    C43    O225      0.58526      .   S
    C99    O225      0.58526      .   S
    C134   O226      1.17063      .   S
    C21    O226      1.17063      .   S
    C99    O227      1.16729      .   S
    C6     O227      1.16729      .   S
    C23    O228      1.09974      .   S
    C41    O228      1.09974      .   S
    C23    O229      1.10481      .   S
    C75    O229      1.10481      .   S
    C23    O230      1.10403      .   S
    C77    O230      1.10403      .   S
    C8     O231      1.10059      .   S
    C76    O231      1.10059      .   S
    C8     O232      1.10496      .   S
    C40    O232      1.10496      .   S
    C8     O233      1.10241      .   S
    C42    O233      1.10241      .   S
    C41    O234      0.58504      .   S
    C97    O234      0.58504      .   S
    C76    O235      0.58497      .   S
    C132   O235      0.58497      .   S
    C75    O236      0.58499      .   S
    C131   O236      0.58499      .   S
    C40    O237      0.58515      .   S
    C96    O237      0.58515  1_565   S
    C97    O238      1.17514      .   S
    C6     O238      1.17514      .   S
    C132   O239      1.16669      .   S
    C21    O239      1.16669  1_655   S
    C96    O240      1.17977      .   S
    C6     O240      1.17977      .   S
    C131   O241      1.18748      .   S
    C21    O241      1.18748  1_655   S
    C77    O242      0.58461      .   S
    C133   O242      0.58461  1_655   S
    C42    O243      0.58477      .   S
    C98    O243      0.58477      .   S
    C21    O244      1.14340      .   S
    C130   O244      1.14340      .   S
    C21    O245      1.15263      .   S
    C129   O245      1.15263      .   S
    C21    O246      1.14485  1_655   S
    C135   O246      1.14485      .   S
    C6     O247      1.15025      .   S
    C95    O247      1.15025      .   S
    C6     O248      1.14681      .   S
    C94    O248      1.14681      .   S
    C6     O249      1.14457      .   S
    C100   O249      1.14457      .   S
    C133   O250      1.15143      .   S
    C22    O250      1.15143      .   S
    C98    O251      1.15176      .   S
    C7     O251      1.15176      .   S
    C130   O252      0.58460      .   S
    C74    O252      0.58460      .   S
    C95    O253      0.58466      .   S
    C39    O253      0.58466      .   S
    C129   O254      0.58457      .   S
    C73    O254      0.58457      .   S
    C94    O255      0.58448      .   S
    C38    O255      0.58448      .   S
    C39    O256      1.10279      .   S
    C22    O256      1.10279      .   S
    C74    O257      1.10448      .   S
    C7     O257      1.10448      .   S
    C73    O258      1.09586      .   S
    C22    O258      1.09586  1_565   S
    C38    O259      1.09787      .   S
    C7     O259      1.09787      .   S
    C22    O260      1.10499      .   S
    C58    O260      1.10499      .   S
    C7     O261      1.10083      .   S
    C37    O261      1.10083      .   S
    C100   O262      0.58468      .   S
    C44    O262      0.58468      .   S
    C135   O263      0.58451      .   S
    C79    O263      0.58451      .   S
    C44    O264      1.10420      .   S
    C4     O264      1.10420      .   S
    C79    O265      1.10213      .   S
    C13    O265      1.10213      .   S
    C58    O266      0.58468      .   S
    C114   O266      0.58468      .   S
    C37    O267      0.58459      .   S
    C93    O267      0.58459      .   S
    C114   O268      1.14572      .   S
    C12    O268      1.14572  1_455   S
    C93    O269      1.14473      .   S
    C3     O269      1.14473      .   S
    C4     O270      1.09696  1_565   S
    C31    O270      1.09696      .   S
    C4     O271      1.09892      .   S
    C53    O271      1.09892      .   S
    C4     O272      1.15801      .   S
    C91    O272      1.15801      .   S
    C13    O273      1.09952      .   S
    C52    O273      1.09952      .   S
    C13    O274      1.09953      .   S
    C32    O274      1.09953      .   S
    C13    O275      1.14962      .   S
    C112   O275      1.14962      .   S
    C52    O276      0.58457      .   S
    C108   O276      0.58457      .   S
    C31    O277      0.58430      .   S
    C87    O277      0.58430      .   S
    C53    O278      0.58455      .   S
    C109   O278      0.58455      .   S
    C32    O279      0.58452      .   S
    C88    O279      0.58452      .   S
    C108   O280      1.14436      .   S
    C12    O280      1.14436      .   S
    C87    O281      1.14997      .   S
    C3     O281      1.14997      .   S
    C109   O282      1.15438      .   S
    C12    O282      1.15438      .   S
    C88    O283      1.14775      .   S
    C3     O283      1.14775      .   S
    C91    O284      0.58442      .   S
    C35    O284      0.58442      .   S
    C112   O285      0.58388  1_455   S
    C56    O285      0.58388      .   S
    C12    O286      1.18849  1_455   S
    C111   O286      1.18849      .   S
    C12    O287      1.17014  1_455   S
    C110   O287      1.17014      .   S
    C12    O288      1.14880      .   S
    C113   O288      1.14880      .   S
    C3     O289      1.19045      .   S
    C89    O289      1.19045      .   S
    C3     O290      1.17015      .   S
    C90    O290      1.17015      .   S
    C3     O291      1.16970      .   S
    C92    O291      1.16970      .   S
    C35    O292      1.10187      .   S
    C5     O292      1.10187      .   S
    C56    O293      1.10525      .   S
    C14    O293      1.10525      .   S
    C111   O294      0.58491      .   S
    C55    O294      0.58491      .   S
    C110   O295      0.58516  1_565   S
    C54    O295      0.58516      .   S
    C89    O296      0.58492      .   S
    C33    O296      0.58492      .   S
    C90    O297      0.58498      .   S
    C34    O297      0.58498      .   S
    C54    O298      1.10797      .   S
    C14    O298      1.10797      .   S
    C55    O299      1.09711      .   S
    C5     O299      1.09711      .   S
    C33    O300      1.10013      .   S
    C5     O300      1.10013      .   S
    C34    O301      1.09919      .   S
    C14    O301      1.09919      .   S
    C113   O302      0.58503      .   S
    C57    O302      0.58503      .   S
    C92    O303      0.58509      .   S
    C36    O303      0.58509      .   S
