# CIF file generated by openbabel 2.4.90, see http://openbabel.sf.net
data_I
_chemical_name_common ''
_cell_length_a 13.444
_cell_length_b 13.791
_cell_length_c 27.651
_cell_angle_alpha 90.014
_cell_angle_beta 89.914
_cell_angle_gamma 89.064
_space_group_name_H-M_alt 'P 1'
_space_group_name_Hall 'P 1'
loop_
    _symmetry_equiv_pos_as_xyz
    x,y,z
loop_
    _atom_site_label
    _atom_site_type_symbol
    _atom_site_fract_x
    _atom_site_fract_y
    _atom_site_fract_z
    _atom_site_occupancy
    Zr0     Zr   0.00000   0.16217   0.12569   1.000
    Zr1     Zr   0.89378   0.54090   0.18676   1.000
    Zr2     Zr   0.12247   0.78279   0.06739   1.000
    Zr3     Zr   0.48803   0.33173   0.87490   1.000
    Zr4     Zr   0.37893   0.95942   0.81057   1.000
    Zr5     Zr   0.61262   0.70981   0.92955   1.000
    Zr6     Zr   0.50632   0.83495   0.62613   1.000
    Zr7     Zr   0.60810   0.45771   0.69060   1.000
    Zr8     Zr   0.37871   0.21482   0.57025   1.000
    Zr9     Zr   0.00920   0.66445   0.37269   1.000
    Zr10    Zr   0.11644   0.03972   0.31206   1.000
    Zr11    Zr   0.87863   0.28897   0.42953   1.000
    Zr12    Zr   0.00042   0.83351   0.87345   1.000
    Zr13    Zr   0.10729   0.45658   0.81092   1.000
    Zr14    Zr   0.87740   0.21389   0.93134   1.000
    Zr15    Zr   0.51053   0.67055   0.12680   1.000
    Zr16    Zr   0.62117   0.04390   0.18980   1.000
    Zr17    Zr   0.38547   0.29339   0.07195   1.000
    Zr18    Zr   0.49424   0.16396   0.37490   1.000
    Zr19    Zr   0.39256   0.54186   0.31150   1.000
    Zr20    Zr   0.62240   0.78480   0.43151   1.000
    Zr21    Zr   0.98940   0.33660   0.62525   1.000
    Zr22    Zr   0.88539   0.96096   0.68750   1.000
    Zr23    Zr   0.12181   0.71226   0.56910   1.000
    N24     N    0.94473   0.35154   0.15982   1.000
    O25     O    0.92871   0.40853   0.16813   1.000
    O26     O    0.96184   0.29454   0.14971   1.000
    N27     N    0.80970   0.09285   0.15641   1.000
    O28     O    0.75271   0.07803   0.16653   1.000
    O29     O    0.86713   0.11276   0.14696   1.000
    N30     N    0.07020   0.97579   0.09088   1.000
    O31     O    0.08737   0.91804   0.08363   1.000
    O32     O    0.04855   0.03189   0.10096   1.000
    N33     N    0.19376   0.23138   0.09127   1.000
    O34     O    0.25170   0.24965   0.08496   1.000
    O35     O    0.13531   0.21131   0.10136   1.000
    N36     N    0.00922   0.65601   0.12283   1.000
    O37     O    0.04344   0.69377   0.10576   1.000
    O38     O    0.97445   0.62117   0.14202   1.000
    N39     N    0.91869   0.20034   0.02990   1.000
    O40     O    0.90476   0.20445   0.00028   1.000
    O41     O    0.94263   0.19008   0.05882   1.000
    N42     N    0.07832   0.10365   0.21820   1.000
    O43     O    0.09020   0.08398   0.24649   1.000
    O44     O    0.05639   0.12197   0.19024   1.000
    N45     N    0.44389   0.13973   0.84071   1.000
    O46     O    0.42469   0.08513   0.83143   1.000
    O47     O    0.45788   0.19725   0.85101   1.000
    N48     N    0.29524   0.39980   0.84340   1.000
    O49     O    0.23841   0.41684   0.83349   1.000
    O50     O    0.35328   0.37993   0.85307   1.000
    N51     N    0.53437   0.52845   0.91034   1.000
    O52     O    0.55694   0.58364   0.91636   1.000
    O53     O    0.51978   0.46942   0.90026   1.000
    N54     N    0.68299   0.27428   0.91292   1.000
    O55     O    0.74169   0.25658   0.91906   1.000
    O56     O    0.62415   0.29125   0.90188   1.000
    N57     N    0.50368   0.82827   0.86678   1.000
    O58     O    0.53690   0.79193   0.88539   1.000
    O59     O    0.46651   0.86779   0.84981   1.000
    N60     N    0.40977   0.30043   0.97186   1.000
    O61     O    0.40088   0.29850   0.00199   1.000
    O62     O    0.43214   0.30843   0.94250   1.000
    N63     N    0.56745   0.39417   0.78407   1.000
    O64     O    0.58012   0.41365   0.75589   1.000
    O65     O    0.54509   0.37496   0.81159   1.000
    N66     N    0.54827   0.64265   0.66180   1.000
    O67     O    0.56585   0.58668   0.67071   1.000
    O68     O    0.53515   0.70046   0.65118   1.000
    N69     N    0.69790   0.90255   0.65703   1.000
    O70     O    0.75459   0.92004   0.66633   1.000
    O71     O    0.64019   0.88276   0.64762   1.000
    N72     N    0.45616   0.02997   0.58991   1.000
    O73     O    0.43367   0.08610   0.58379   1.000
    O74     O    0.47183   0.97130   0.60016   1.000
    N75     N    0.31296   0.77587   0.58810   1.000
    O76     O    0.25523   0.75713   0.58181   1.000
    O77     O    0.37124   0.79347   0.59915   1.000
    N78     N    0.48623   0.33283   0.63238   1.000
    O79     O    0.45342   0.29683   0.61388   1.000
    O80     O    0.52262   0.37054   0.64991   1.000
    N81     N    0.59020   0.79495   0.53104   1.000
    O82     O    0.60147   0.79191   0.50110   1.000
    O83     O    0.56600   0.80545   0.55986   1.000
    N84     N    0.42415   0.89968   0.71648   1.000
    O85     O    0.41010   0.91815   0.74482   1.000
    O86     O    0.44743   0.87996   0.68908   1.000
    N87     N    0.05478   0.85692   0.33992   1.000
    O88     O    0.07296   0.91228   0.33130   1.000
    O89     O    0.04062   0.79915   0.34977   1.000
    N90     N    0.20217   0.59583   0.34309   1.000
    O91     O    0.25973   0.57968   0.33347   1.000
    O92     O    0.14397   0.61565   0.35221   1.000
    N93     N    0.95607   0.47021   0.40754   1.000
    O94     O    0.93351   0.41517   0.41436   1.000
    O95     O    0.97256   0.52850   0.39751   1.000
    N96     N    0.81631   0.72496   0.41060   1.000
    O97     O    0.75778   0.74254   0.41744   1.000
    O98     O    0.87458   0.70721   0.39950   1.000
    N99     N    0.99016   0.16704   0.36904   1.000
    O100    O    0.95608   0.20423   0.38700   1.000
    O101    O    0.02792   0.12851   0.35196   1.000
    N102    N    0.09179   0.69835   0.46967   1.000
    O103    O    0.10246   0.70236   0.49958   1.000
    O104    O    0.06797   0.68933   0.44037   1.000
    N105    N    0.93469   0.60542   0.27969   1.000
    O106    O    0.92223   0.58582   0.25159   1.000
    O107    O    0.95555   0.62365   0.30781   1.000
    N108    N    0.04251   0.64120   0.83830   1.000
    O109    O    0.06150   0.58529   0.82982   1.000
    O110    O    0.02920   0.69902   0.84873   1.000
    N111    N    0.19348   0.89962   0.84259   1.000
    O112    O    0.24955   0.91763   0.83283   1.000
    O113    O    0.13551   0.88003   0.85207   1.000
    N114    N    0.94952   0.02803   0.90854   1.000
    O115    O    0.92877   0.08445   0.91557   1.000
    O116    O    0.96496   0.96943   0.89843   1.000
    N117    N    0.80102   0.77663   0.90793   1.000
    O118    O    0.74404   0.75712   0.91500   1.000
    O119    O    0.86074   0.79365   0.89765   1.000
    N120    N    0.98480   0.33294   0.86927   1.000
    O121    O    0.95211   0.29655   0.88772   1.000
    O122    O    0.02126   0.37048   0.85175   1.000
    N123    N    0.06807   0.79093   0.96987   1.000
    O124    O    0.08436   0.78792   0.99935   1.000
    O125    O    0.04848   0.80256   0.94066   1.000
    N126    N    0.92561   0.89833   0.78164   1.000
    O127    O    0.91310   0.91765   0.75328   1.000
    O128    O    0.94677   0.87846   0.80941   1.000
    N129    N    0.56231   0.86028   0.16044   1.000
    O130    O    0.57980   0.91586   0.16939   1.000
    O131    O    0.54659   0.80317   0.15041   1.000
    N132    N    0.70187   0.59400   0.15602   1.000
    O133    O    0.75965   0.57717   0.16523   1.000
    O134    O    0.64422   0.61668   0.14719   1.000
    N135    N    0.45969   0.47706   0.09097   1.000
    O136    O    0.43813   0.42130   0.08497   1.000
    O137    O    0.47540   0.53528   0.10117   1.000
    N138    N    0.31915   0.74105   0.09384   1.000
    O139    O    0.25990   0.75467   0.08593   1.000
    O140    O    0.37707   0.72025   0.10338   1.000
    N141    N    0.49707   0.17292   0.13286   1.000
    O142    O    0.46309   0.20972   0.11474   1.000
    O143    O    0.53418   0.13397   0.14998   1.000
    N144    N    0.59078   0.70071   0.02934   1.000
    O145    O    0.59895   0.70331   0.99927   1.000
    O146    O    0.56800   0.69284   0.05882   1.000
    N147    N    0.43477   0.60663   0.21852   1.000
    O148    O    0.42174   0.58674   0.24657   1.000
    O149    O    0.45619   0.62630   0.19079   1.000
    N150    N    0.45064   0.35645   0.34002   1.000
    O151    O    0.43360   0.41257   0.33120   1.000
    O152    O    0.46406   0.29856   0.35044   1.000
    N153    N    0.30328   0.09604   0.34445   1.000
    O154    O    0.24676   0.07915   0.33462   1.000
    O155    O    0.36083   0.11583   0.35379   1.000
    N156    N    0.54623   0.96995   0.41128   1.000
    O157    O    0.56834   0.91375   0.41759   1.000
    O158    O    0.53016   0.02836   0.40093   1.000
    N159    N    0.68716   0.22499   0.41177   1.000
    O160    O    0.74503   0.24384   0.41764   1.000
    O161    O    0.62893   0.20688   0.40112   1.000
    N162    N    0.51252   0.66583   0.37073   1.000
    O163    O    0.54596   0.70210   0.38885   1.000
    O164    O    0.47656   0.62831   0.35299   1.000
    N165    N    0.41068   0.20357   0.47075   1.000
    O166    O    0.39950   0.20694   0.50068   1.000
    O167    O    0.43476   0.19312   0.44173   1.000
    N168    N    0.57607   0.10279   0.28368   1.000
    O169    O    0.59008   0.08476   0.25535   1.000
    O170    O    0.55288   0.12140   0.31133   1.000
    N171    N    0.94652   0.14358   0.65912   1.000
    O172    O    0.92850   0.08830   0.66791   1.000
    O173    O    0.95998   0.20147   0.64895   1.000
    N174    N    0.79690   0.40379   0.65673   1.000
    O175    O    0.73983   0.41991   0.66705   1.000
    O176    O    0.85489   0.38434   0.64701   1.000
    N177    N    0.04158   0.53155   0.58996   1.000
    O178    O    0.06498   0.58644   0.58348   1.000
    O179    O    0.02519   0.47310   0.60006   1.000
    N180    N    0.18430   0.27674   0.58848   1.000
    O181    O    0.24304   0.25858   0.58246   1.000
    O182    O    0.12544   0.29438   0.59914   1.000
    N183    N    0.01066   0.83328   0.63025   1.000
    O184    O    0.04459   0.79637   0.61208   1.000
    O185    O    0.97319   0.87186   0.64745   1.000
    N186    N    0.90872   0.30192   0.52900   1.000
    O187    O    0.89811   0.29820   0.49907   1.000
    O188    O    0.93198   0.31107   0.55813   1.000
    N189    N    0.06712   0.39700   0.71670   1.000
    O190    O    0.07960   0.41536   0.74510   1.000
    O191    O    0.04526   0.37844   0.68899   1.000
loop_
    _geom_bond_atom_site_label_1
    _geom_bond_atom_site_label_2
    _geom_bond_distance
    _geom_bond_site_symmetry_2
    _ccdc_geom_bond_type
    N24    O25       0.84334      .   S
    Zr1    O25       1.94656      .   S
    N24    O26       0.86173      .   S
    Zr0    O26       2.00120  1_455   S
    N27    O28       0.84355      .   S
    Zr16   O28       1.94608      .   S
    N27    O29       0.86381      .   S
    Zr0    O29       2.00942  1_455   S
    N30    O31       0.84950      .   S
    Zr2    O31       1.96810      .   S
    N30    O32       0.86792  1_565   S
    Zr0    O32       2.02027      .   S
    N33    O34       0.84060      .   S
    Zr17   O34       1.93944      .   S
    N33    O35       0.88219      .   S
    Zr0    O35       2.06350      .   S
    N36    O37       0.84430      .   S
    Zr2    O37       1.94974      .   S
    N36    O38       0.85889  1_455   S
    Zr1    O38       1.99203      .   S
    N39    O40       0.84203      .   S
    Zr14   O40       1.94609  1_556   S
    N39    O41       0.87323      .   S
    Zr0    O41       2.03875  1_455   S
    N42    O43       0.84273      .   S
    Zr10   O43       1.94408      .   S
    N42    O44       0.86407      .   S
    Zr0    O44       2.01475      .   S
    N45    O46       0.84022      .   S
    Zr4    O46       1.93705  1_565   S
    N45    O47       0.86641      .   S
    Zr3    O47       2.01617      .   S
    N48    O49       0.84197      .   S
    Zr13   O49       1.94148      .   S
    N48    O50       0.86544      .   S
    Zr3    O50       2.01299      .   S
    N51    O52       0.84057      .   S
    Zr5    O52       1.94012      .   S
    N51    O53       0.88546      .   S
    Zr3    O53       2.07528      .   S
    N54    O55       0.83987      .   S
    Zr14   O55       1.93840      .   S
    N54    O56       0.87658      .   S
    Zr3    O56       2.04644      .   S
    N57    O58       0.84192      .   S
    Zr5    O58       1.94342      .   S
    N57    O59       0.87104      .   S
    Zr4    O59       2.02899      .   S
    N60    O61       0.84210  1_556   S
    Zr17   O61       1.94663      .   S
    N60    O62       0.87275      .   S
    Zr3    O62       2.04112      .   S
    N63    O64       0.84240      .   S
    Zr7    O64       1.94314      .   S
    N63    O65       0.86119      .   S
    Zr3    O65       2.00492      .   S
    N66    O67       0.84062      .   S
    Zr7    O67       1.93832      .   S
    N66    O68       0.86527      .   S
    Zr6    O68       2.01198      .   S
    N69    O70       0.84365      .   S
    Zr22   O70       1.94642      .   S
    N69    O71       0.86698      .   S
    Zr6    O71       2.01709      .   S
    N72    O73       0.84370      .   S
    Zr8    O73       1.94825      .   S
    N72    O74       0.87993  1_545   S
    Zr6    O74       2.05898      .   S
    N75    O76       0.84043      .   S
    Zr23   O76       1.93957      .   S
    N75    O77       0.87926      .   S
    Zr6    O77       2.05417      .   S
    N78    O79       0.84290      .   S
    Zr8    O79       1.94510      .   S
    N78    O80       0.86815      .   S
    Zr7    O80       2.01987      .   S
    N81    O82       0.84212      .   S
    Zr20   O82       1.94655      .   S
    N81    O83       0.87160      .   S
    Zr6    O83       2.03756      .   S
    N84    O85       0.84397      .   S
    Zr4    O85       1.94803      .   S
    N84    O86       0.86160      .   S
    Zr6    O86       2.00529      .   S
    N87    O88       0.83978      .   S
    Zr10   O88       1.93569  1_545   S
    N87    O89       0.86605      .   S
    Zr9    O89       2.01413      .   S
    N90    O91       0.84437      .   S
    Zr19   O91       1.94827      .   S
    N90    O92       0.86204      .   S
    Zr9    O92       2.00325      .   S
    N93    O94       0.84330      .   S
    Zr11   O94       1.94695      .   S
    N93    O95       0.88209      .   S
    Zr9    O95       2.06359  1_455   S
    N96    O97       0.84084      .   S
    Zr20   O97       1.94083      .   S
    N96    O98       0.87220      .   S
    Zr9    O98       2.03317  1_455   S
    N99    O100      0.84321      .   S
    Zr11   O100      1.94651      .   S
    N99    O101      0.86813  1_655   S
    Zr10   O101      2.02004      .   S
    N102   O103      0.84159      .   S
    Zr23   O103      1.94525      .   S
    N102   O104      0.88108      .   S
    Zr9    O104      2.06336      .   S
    N105   O106      0.84062      .   S
    Zr1    O106      1.93720      .   S
    N105   O107      0.86556      .   S
    Zr9    O107      2.01793  1_455   S
    N108   O109      0.84134      .   S
    Zr13   O109      1.94065      .   S
    N108   O110      0.86379      .   S
    Zr12   O110      2.00795      .   S
    N111   O112      0.84169      .   S
    Zr4    O112      1.94059      .   S
    N111   O113      0.86913      .   S
    Zr12   O113      2.02342      .   S
    N114   O115      0.84493      .   S
    Zr14   O115      1.95240      .   S
    N114   O116      0.87657  1_545   S
    Zr12   O116      2.04640  1_455   S
    N117   O118      0.83880      .   S
    Zr5    O118      1.93525      .   S
    N117   O119      0.88669      .   S
    Zr12   O119      2.07517  1_455   S
    N120   O121      0.84374      .   S
    Zr14   O121      1.94874      .   S
    N120   O122      0.86640  1_655   S
    Zr13   O122      2.01592      .   S
    N123   O124      0.84528      .   S
    Zr2    O124      1.95158  1_554   S
    N123   O125      0.86410      .   S
    Zr12   O125      2.01209      .   S
    N126   O127      0.84442      .   S
    Zr22   O127      1.94928      .   S
    N126   O128      0.86252      .   S
    Zr12   O128      2.00747  1_455   S
    N129   O130      0.84267      .   S
    Zr16   O130      1.94369  1_545   S
    N129   O131      0.86449      .   S
    Zr15   O131      2.00901      .   S
    N132   O133      0.84678      .   S
    Zr1    O133      1.95708      .   S
    N132   O134      0.86646      .   S
    Zr15   O134      2.01487      .   S
    N135   O136      0.84279      .   S
    Zr17   O136      1.94518      .   S
    N135   O137      0.88000      .   S
    Zr15   O137      2.05778      .   S
    N138   O139      0.84456      .   S
    Zr2    O139      1.95091      .   S
    N138   O140      0.86704      .   S
    Zr15   O140      2.01785      .   S
    N141   O142      0.84292      .   S
    Zr17   O142      1.94560      .   S
    N141   O143      0.86809      .   S
    Zr16   O143      2.01994      .   S
    N144   O145      0.83932  1_554   S
    Zr5    O145      1.93858      .   S
    N144   O146      0.87785      .   S
    Zr15   O146      2.05621      .   S
    N147   O148      0.84168      .   S
    Zr19   O148      1.94087      .   S
    N147   O149      0.86397      .   S
    Zr15   O149      2.01210      .   S
    N150   O151      0.83990      .   S
    Zr19   O151      1.93645      .   S
    N150   O152      0.86505      .   S
    Zr18   O152      2.01118      .   S
    N153   O154      0.84367      .   S
    Zr10   O154      1.94647      .   S
    N153   O155      0.86444      .   S
    Zr18   O155      2.01004      .   S
    N156   O157      0.84386      .   S
    Zr20   O157      1.94887      .   S
    N156   O158      0.87866  1_565   S
    Zr18   O158      2.05445      .   S
    N159   O160      0.84033      .   S
    Zr11   O160      1.93900      .   S
    N159   O161      0.87695      .   S
    Zr18   O161      2.04783      .   S
    N162   O163      0.84339      .   S
    Zr20   O163      1.94659      .   S
    N162   O164      0.86644      .   S
    Zr19   O164      2.01506      .   S
    N165   O166      0.84205      .   S
    Zr8    O166      1.94622      .   S
    N165   O167      0.87580      .   S
    Zr18   O167      2.04958      .   S
    N168   O169      0.84171      .   S
    Zr16   O169      1.94099      .   S
    N168   O170      0.86283      .   S
    Zr18   O170      2.00892      .   S
    N171   O172      0.83968      .   S
    Zr22   O172      1.93539  1_565   S
    N171   O173      0.86816      .   S
    Zr21   O173      2.02067      .   S
    N174   O175      0.84446      .   S
    Zr7    O175      1.94892      .   S
    N174   O176      0.86285      .   S
    Zr21   O176      2.00592      .   S
    N177   O178      0.84370      .   S
    Zr23   O178      1.94815      .   S
    N177   O179      0.88425      .   S
    Zr21   O179      2.07117  1_655   S
    N180   O181      0.84092      .   S
    Zr8    O181      1.94095      .   S
    N180   O182      0.87474      .   S
    Zr21   O182      2.04112  1_655   S
    N183   O184      0.84348      .   S
    Zr23   O184      1.94726      .   S
    N183   O185      0.86791  1_455   S
    Zr22   O185      2.01932      .   S
    N186   O187      0.84178      .   S
    Zr11   O187      1.94548      .   S
    N186   O188      0.87423      .   S
    Zr21   O188      2.04382      .   S
    N189   O190      0.84297      .   S
    Zr13   O190      1.94499      .   S
    N189   O191      0.86131      .   S
    Zr21   O191      2.00518  1_655   S
