# CIF file generated by openbabel 2.4.90, see http://openbabel.sf.net
data_I
_chemical_name_common ''
_cell_length_a 13.444
_cell_length_b 13.791
_cell_length_c 27.651
_cell_angle_alpha 90.014
_cell_angle_beta 89.914
_cell_angle_gamma 89.064
_space_group_name_H-M_alt 'P 1'
_space_group_name_Hall 'P 1'
loop_
    _symmetry_equiv_pos_as_xyz
    x,y,z
loop_
    _atom_site_label
    _atom_site_type_symbol
    _atom_site_fract_x
    _atom_site_fract_y
    _atom_site_fract_z
    _atom_site_occupancy
    N0      N    0.94473   0.35154   0.15982   1.000
    N1      N    0.80970   0.09285   0.15641   1.000
    N2      N    0.07020   0.97579   0.09088   1.000
    N3      N    0.19376   0.23138   0.09127   1.000
    N4      N    0.00922   0.65601   0.12283   1.000
    N5      N    0.91869   0.20034   0.02990   1.000
    N6      N    0.07832   0.10365   0.21820   1.000
    N7      N    0.44389   0.13973   0.84071   1.000
    N8      N    0.29524   0.39980   0.84340   1.000
    N9      N    0.53437   0.52845   0.91034   1.000
    N10     N    0.68299   0.27428   0.91292   1.000
    N11     N    0.50368   0.82827   0.86678   1.000
    N12     N    0.40977   0.30043   0.97186   1.000
    N13     N    0.56745   0.39417   0.78407   1.000
    N14     N    0.54827   0.64265   0.66180   1.000
    N15     N    0.69790   0.90255   0.65703   1.000
    N16     N    0.45616   0.02997   0.58991   1.000
    N17     N    0.31296   0.77587   0.58810   1.000
    N18     N    0.48623   0.33283   0.63238   1.000
    N19     N    0.59020   0.79495   0.53104   1.000
    N20     N    0.42415   0.89968   0.71648   1.000
    N21     N    0.05478   0.85692   0.33992   1.000
    N22     N    0.20217   0.59583   0.34309   1.000
    N23     N    0.95607   0.47021   0.40754   1.000
    N24     N    0.81631   0.72496   0.41060   1.000
    N25     N    0.99016   0.16704   0.36904   1.000
    N26     N    0.09179   0.69835   0.46967   1.000
    N27     N    0.93469   0.60542   0.27969   1.000
    N28     N    0.04251   0.64120   0.83830   1.000
    N29     N    0.19348   0.89962   0.84259   1.000
    N30     N    0.94952   0.02803   0.90854   1.000
    N31     N    0.80102   0.77663   0.90793   1.000
    N32     N    0.98480   0.33294   0.86927   1.000
    N33     N    0.06807   0.79093   0.96987   1.000
    N34     N    0.92561   0.89833   0.78164   1.000
    N35     N    0.56231   0.86028   0.16044   1.000
    N36     N    0.70187   0.59400   0.15602   1.000
    N37     N    0.45969   0.47706   0.09097   1.000
    N38     N    0.31915   0.74105   0.09384   1.000
    N39     N    0.49707   0.17292   0.13286   1.000
    N40     N    0.59078   0.70071   0.02934   1.000
    N41     N    0.43477   0.60663   0.21852   1.000
    N42     N    0.45064   0.35645   0.34002   1.000
    N43     N    0.30328   0.09604   0.34445   1.000
    N44     N    0.54623   0.96995   0.41128   1.000
    N45     N    0.68716   0.22499   0.41177   1.000
    N46     N    0.51252   0.66583   0.37073   1.000
    N47     N    0.41068   0.20357   0.47075   1.000
    N48     N    0.57607   0.10279   0.28368   1.000
    N49     N    0.94652   0.14358   0.65912   1.000
    N50     N    0.79690   0.40379   0.65673   1.000
    N51     N    0.04158   0.53155   0.58996   1.000
    N52     N    0.18430   0.27674   0.58848   1.000
    N53     N    0.01066   0.83328   0.63025   1.000
    N54     N    0.90872   0.30192   0.52900   1.000
    N55     N    0.06712   0.39700   0.71670   1.000
    Zr56    Zr   0.00042   0.83351   0.87345   1.000
    O57     O    0.97360   0.85598   0.84143   1.000
    O58     O    0.01481   0.76626   0.86109   1.000
    O59     O    0.98269   0.90147   0.88594   1.000
    O60     O    0.06797   0.85677   0.86276   1.000
    O61     O    0.02445   0.81803   0.90706   1.000
    O62     O    0.93058   0.81358   0.88555   1.000
    Zr63    Zr   0.10729   0.45658   0.81092   1.000
    O64     O    0.08439   0.52094   0.82037   1.000
    O65     O    0.09344   0.43597   0.77801   1.000
    O66     O    0.17285   0.43671   0.82221   1.000
    O67     O    0.06427   0.41353   0.83133   1.000
    Zr68    Zr   0.87740   0.21389   0.93134   1.000
    O69     O    0.89108   0.20917   0.96581   1.000
    O70     O    0.90309   0.14917   0.92346   1.000
    O71     O    0.91475   0.25522   0.90953   1.000
    O72     O    0.80954   0.23523   0.92520   1.000
    Zr73    Zr   0.51053   0.67055   0.12680   1.000
    O74     O    0.48336   0.64843   0.15880   1.000
    O75     O    0.44380   0.69540   0.11509   1.000
    O76     O    0.53927   0.68169   0.09281   1.000
    O77     O    0.49297   0.60291   0.11398   1.000
    O78     O    0.57738   0.64362   0.13699   1.000
    O79     O    0.52856   0.73686   0.13861   1.000
    Zr80    Zr   0.62117   0.04390   0.18980   1.000
    O81     O    0.57768   0.08893   0.16989   1.000
    O82     O    0.68694   0.06097   0.17816   1.000
    O83     O    0.60562   0.06433   0.22258   1.000
    O84     O    0.60048   0.97988   0.17960   1.000
    Zr85    Zr   0.38547   0.29339   0.07195   1.000
    O86     O    0.31858   0.27152   0.07846   1.000
    O87     O    0.42428   0.25156   0.09335   1.000
    O88     O    0.41180   0.35734   0.07846   1.000
    O89     O    0.39318   0.29594   0.03697   1.000
    Zr90    Zr   0.49424   0.16396   0.37490   1.000
    O91     O    0.47915   0.23126   0.36267   1.000
    O92     O    0.42753   0.13989   0.36435   1.000
    O93     O    0.51220   0.09616   0.38791   1.000
    O94     O    0.46450   0.17854   0.40832   1.000
    O95     O    0.56159   0.18542   0.38801   1.000
    O96     O    0.52356   0.14268   0.34312   1.000
    Zr97    Zr   0.39256   0.54186   0.31150   1.000
    O98     O    0.40715   0.56430   0.27903   1.000
    O99     O    0.41308   0.47722   0.32135   1.000
    O100    O    0.32615   0.56077   0.32248   1.000
    O101    O    0.43456   0.58509   0.33225   1.000
    Zr102   Zr   0.62240   0.78480   0.43151   1.000
    O103    O    0.59537   0.84928   0.42455   1.000
    O104    O    0.69009   0.76367   0.42448   1.000
    O105    O    0.58418   0.74345   0.41018   1.000
    O106    O    0.61193   0.78835   0.46631   1.000
    Zr107   Zr   0.98940   0.33660   0.62525   1.000
    O108    O    0.00729   0.40485   0.61265   1.000
    O109    O    0.92215   0.36047   0.63613   1.000
    O110    O    0.97469   0.26903   0.63710   1.000
    O111    O    0.05742   0.31549   0.61220   1.000
    O112    O    0.01733   0.35752   0.65712   1.000
    O113    O    0.96069   0.32384   0.59169   1.000
    Zr114   Zr   0.88539   0.96096   0.68750   1.000
    O115    O    0.90694   0.02463   0.67771   1.000
    O116    O    0.92929   0.91641   0.66747   1.000
    O117    O    0.81999   0.94050   0.67692   1.000
    O118    O    0.89924   0.93931   0.72039   1.000
    Zr119   Zr   0.12181   0.71226   0.56910   1.000
    O120    O    0.11214   0.70731   0.53434   1.000
    O121    O    0.18852   0.73469   0.57546   1.000
    O122    O    0.08320   0.75431   0.59059   1.000
    O123    O    0.09339   0.64935   0.57629   1.000
    Zr124   Zr   0.00000   0.16217   0.12569   1.000
    O125    O    0.02819   0.14207   0.15797   1.000
    O126    O    0.06766   0.18674   0.11352   1.000
    O127    O    0.97132   0.17612   0.09226   1.000
    O128    O    0.02428   0.09703   0.11333   1.000
    O129    O    0.93357   0.13747   0.13632   1.000
    O130    O    0.98092   0.22836   0.13770   1.000
    Zr131   Zr   0.89378   0.54090   0.18676   1.000
    O132    O    0.93412   0.58103   0.16439   1.000
    O133    O    0.82672   0.55904   0.17600   1.000
    O134    O    0.90801   0.56336   0.21917   1.000
    O135    O    0.91124   0.47471   0.17744   1.000
    Zr136   Zr   0.12247   0.78279   0.06739   1.000
    O137    O    0.08296   0.73828   0.08657   1.000
    O138    O    0.19119   0.76873   0.07666   1.000
    O139    O    0.10492   0.85041   0.07551   1.000
    O140    O    0.10342   0.78535   0.03337   1.000
    Zr141   Zr   0.48803   0.33173   0.87490   1.000
    O142    O    0.51656   0.35335   0.84325   1.000
    O143    O    0.47296   0.26449   0.86295   1.000
    O144    O    0.42066   0.35583   0.86398   1.000
    O145    O    0.50391   0.40058   0.88758   1.000
    O146    O    0.46009   0.32008   0.90870   1.000
    O147    O    0.55609   0.31149   0.88839   1.000
    Zr148   Zr   0.37893   0.95942   0.81057   1.000
    O149    O    0.40181   0.02227   0.82100   1.000
    O150    O    0.39452   0.93879   0.77769   1.000
    O151    O    0.31424   0.93852   0.82170   1.000
    O152    O    0.42272   0.91360   0.83019   1.000
    Zr153   Zr   0.61262   0.70981   0.92955   1.000
    O154    O    0.60579   0.70656   0.96441   1.000
    O155    O    0.58478   0.64672   0.92295   1.000
    O156    O    0.67833   0.73346   0.92227   1.000
    O157    O    0.57476   0.75087   0.90747   1.000
    Zr158   Zr   0.50632   0.83495   0.62613   1.000
    O159    O    0.48907   0.90312   0.61315   1.000
    O160    O    0.43878   0.81421   0.61264   1.000
    O161    O    0.47688   0.85746   0.65760   1.000
    O162    O    0.53616   0.82020   0.59299   1.000
    O163    O    0.57326   0.85885   0.63687   1.000
    O164    O    0.52074   0.76771   0.63865   1.000
    Zr165   Zr   0.60810   0.45771   0.69060   1.000
    O166    O    0.56536   0.41413   0.67025   1.000
    O167    O    0.67397   0.43881   0.67882   1.000
    O168    O    0.58698   0.52220   0.68066   1.000
    O169    O    0.59411   0.43568   0.72324   1.000
    Zr170   Zr   0.37871   0.21482   0.57025   1.000
    O171    O    0.38911   0.21088   0.53547   1.000
    O172    O    0.31088   0.23670   0.57635   1.000
    O173    O    0.41607   0.25583   0.59206   1.000
    O174    O    0.40619   0.15046   0.57702   1.000
    Zr175   Zr   0.00920   0.66445   0.37269   1.000
    O176    O    0.03858   0.67689   0.40653   1.000
    O177    O    0.99088   0.59647   0.38510   1.000
    O178    O    0.07658   0.64005   0.36245   1.000
    O179    O    0.94189   0.68583   0.38609   1.000
    O180    O    0.98238   0.64405   0.34025   1.000
    O181    O    0.02491   0.73180   0.36123   1.000
    Zr182   Zr   0.11644   0.03972   0.31206   1.000
    O183    O    0.10332   0.06185   0.27928   1.000
    O184    O    0.18160   0.05943   0.32334   1.000
    O185    O    0.07218   0.08411   0.33201   1.000
    O186    O    0.09470   0.97600   0.32168   1.000
    Zr187   Zr   0.87863   0.28897   0.42953   1.000
    O188    O    0.90607   0.35207   0.42195   1.000
    O189    O    0.81183   0.26641   0.42359   1.000
    O190    O    0.91736   0.24660   0.40826   1.000
    O191    O    0.88837   0.29359   0.46430   1.000
loop_
    _geom_bond_atom_site_label_1
    _geom_bond_atom_site_label_2
    _geom_bond_distance
    _geom_bond_site_symmetry_2
    _ccdc_geom_bond_type
    Zr56   O57       1.00373  1_455   S
    N34    O57       1.86602      .   S
    Zr56   O58       1.00397      .   S
    N28    O58       1.86770      .   S
    Zr56   O59       1.02320  1_455   S
    N30    O59       1.89967  1_545   S
    Zr56   O60       1.01171      .   S
    N29    O60       1.88081      .   S
    Zr56   O61       1.00604      .   S
    N33    O61       1.86989      .   S
    Zr56   O62       1.03759  1_455   S
    N31    O62       1.92427      .   S
    Zr63   O64       0.97033      .   S
    N28    O64       1.81160      .   S
    Zr63   O65       0.97250      .   S
    N55    O65       1.81543      .   S
    Zr63   O66       0.97074      .   S
    N8     O66       1.81270      .   S
    Zr63   O67       1.00796      .   S
    N32    O67       1.87432  1_655   S
    Zr68   O69       0.97304      .   S
    N5     O69       1.81481  1_554   S
    Zr68   O70       0.97620      .   S
    N30    O70       1.82098      .   S
    Zr68   O71       0.97437      .   S
    N32    O71       1.81803      .   S
    Zr68   O72       0.96920      .   S
    N10    O72       1.80887      .   S
    Zr73   O74       1.00605      .   S
    N41    O74       1.86977      .   S
    Zr73   O75       1.00892      .   S
    N38    O75       1.87587      .   S
    Zr73   O76       1.02811      .   S
    N40    O76       1.90557      .   S
    Zr73   O77       1.02889      .   S
    N37    O77       1.90872      .   S
    Zr73   O78       1.00744      .   S
    N36    O78       1.87388      .   S
    Zr73   O79       1.00450      .   S
    N35    O79       1.86898      .   S
    Zr80   O81       1.00997      .   S
    N39    O81       1.87805      .   S
    Zr80   O82       0.97304      .   S
    N1     O82       1.81658      .   S
    Zr80   O83       0.97050      .   S
    N48    O83       1.81218      .   S
    Zr80   O84       0.97185  1_545   S
    N35    O84       1.81450      .   S
    Zr85   O86       0.96972      .   S
    N3     O86       1.81018      .   S
    Zr85   O87       0.97280      .   S
    N39    O87       1.81565      .   S
    Zr85   O88       0.97259      .   S
    N37    O88       1.81525      .   S
    Zr85   O89       0.97332      .   S
    N12    O89       1.81512  1_556   S
    Zr90   O91       1.00559      .   S
    N42    O91       1.87063      .   S
    Zr90   O92       1.00502      .   S
    N43    O92       1.86939      .   S
    Zr90   O93       1.02722      .   S
    N44    O93       1.90570  1_565   S
    Zr90   O94       1.02479      .   S
    N47    O94       1.90021      .   S
    Zr90   O95       1.02392      .   S
    N45    O95       1.90077      .   S
    Zr90   O96       1.00446      .   S
    N48    O96       1.86703      .   S
    Zr97   O98       0.97043      .   S
    N41    O98       1.81209      .   S
    Zr97   O99       0.96823      .   S
    N42    O99       1.80807      .   S
    Zr97   O100      0.97414      .   S
    N22    O100      1.81850      .   S
    Zr97   O101      1.00753      .   S
    N46    O101      1.87396      .   S
    Zr102  O103      0.97444      .   S
    N44    O103      1.81818      .   S
    Zr102  O104      0.97042      .   S
    N24    O104      1.81108      .   S
    Zr102  O105      0.97330      .   S
    N46    O105      1.81664      .   S
    Zr102  O106      0.97328      .   S
    N19    O106      1.81510      .   S
    Zr107  O108      1.03558  1_655   S
    N51    O108      1.91966      .   S
    Zr107  O109      1.00296      .   S
    N50    O109      1.86570      .   S
    Zr107  O110      1.01033      .   S
    N49    O110      1.87846      .   S
    Zr107  O111      1.02056  1_655   S
    N52    O111      1.89521      .   S
    Zr107  O112      1.00259  1_655   S
    N55    O112      1.86360      .   S
    Zr107  O113      1.02191      .   S
    N54    O113      1.89581      .   S
    Zr114  O115      0.96769  1_565   S
    N49    O115      1.80733      .   S
    Zr114  O116      1.00966      .   S
    N53    O116      1.87756  1_455   S
    Zr114  O117      0.97321      .   S
    N15    O117      1.81685      .   S
    Zr114  O118      0.97464      .   S
    N34    O118      1.81902      .   S
    Zr119  O120      0.97263      .   S
    N26    O120      1.81390      .   S
    Zr119  O121      0.96979      .   S
    N17    O121      1.81003      .   S
    Zr119  O122      0.97363      .   S
    N53    O122      1.81704      .   S
    Zr119  O123      0.97408      .   S
    N51    O123      1.81767      .   S
    Zr124  O125      1.00738      .   S
    N6     O125      1.87107      .   S
    Zr124  O126      1.03175      .   S
    N3     O126      1.91385      .   S
    Zr124  O127      1.01938  1_455   S
    N5     O127      1.89240      .   S
    Zr124  O128      1.01014      .   S
    N2     O128      1.87795  1_565   S
    Zr124  O129      1.00471  1_455   S
    N1     O129      1.86839      .   S
    Zr124  O130      1.00060  1_455   S
    N0     O130      1.86229      .   S
    Zr131  O132      0.99602      .   S
    N4     O132      1.85490  1_455   S
    Zr131  O133      0.97854      .   S
    N36    O133      1.82523      .   S
    Zr131  O134      0.96860      .   S
    N27    O134      1.80922      .   S
    Zr131  O135      0.97328      .   S
    N0     O135      1.81655      .   S
    Zr136  O137      0.97487      .   S
    N4     O137      1.81908      .   S
    Zr136  O138      0.97546      .   S
    N38    O138      1.81989      .   S
    Zr136  O139      0.98405      .   S
    N2     O139      1.83328      .   S
    Zr136  O140      0.97579      .   S
    N33    O140      1.82103  1_556   S
    Zr141  O142      1.00246      .   S
    N13    O142      1.86334      .   S
    Zr141  O143      1.00809      .   S
    N7     O143      1.87444      .   S
    Zr141  O144      1.00649      .   S
    N8     O144      1.87187      .   S
    Zr141  O145      1.03764      .   S
    N9     O145      1.92291      .   S
    Zr141  O146      1.02056      .   S
    N12    O146      1.89290      .   S
    Zr141  O147      1.02322      .   S
    N10    O147      1.89971      .   S
    Zr148  O149      0.96853  1_565   S
    N7     O149      1.80871      .   S
    Zr148  O150      0.97402      .   S
    N20    O150      1.81794      .   S
    Zr148  O151      0.97030      .   S
    N29    O151      1.81198      .   S
    Zr148  O152      1.01450      .   S
    N11    O152      1.88552      .   S
    Zr153  O154      0.96929      .   S
    N40    O154      1.80831  1_554   S
    Zr153  O155      0.97006      .   S
    N9     O155      1.81046      .   S
    Zr153  O156      0.96762      .   S
    N31    O156      1.80622      .   S
    Zr153  O157      0.97171      .   S
    N11    O157      1.81352      .   S
    Zr158  O159      1.02949      .   S
    N16    O159      1.90920  1_545   S
    Zr158  O160      1.02708      .   S
    N17    O160      1.90627      .   S
    Zr158  O161      1.00264      .   S
    N20    O161      1.86397      .   S
    Zr158  O162      1.01878      .   S
    N19    O162      1.88997      .   S
    Zr158  O163      1.00855      .   S
    N15    O163      1.87549      .   S
    Zr158  O164      1.00599      .   S
    N14    O164      1.87123      .   S
    Zr165  O166      1.00994      .   S
    N18    O166      1.87807      .   S
    Zr165  O167      0.97446      .   S
    N50    O167      1.81892      .   S
    Zr165  O168      0.96916      .   S
    N14    O168      1.80973      .   S
    Zr165  O169      0.97157      .   S
    N13    O169      1.81394      .   S
    Zr170  O171      0.97311      .   S
    N47    O171      1.81488      .   S
    Zr170  O172      0.97048      .   S
    N52    O172      1.81122      .   S
    Zr170  O173      0.97255      .   S
    N18    O173      1.81539      .   S
    Zr170  O174      0.97413      .   S
    N16    O174      1.81770      .   S
    Zr175  O176      1.03168      .   S
    N26    O176      1.91248      .   S
    Zr175  O177      1.03180  1_455   S
    N23    O177      1.91377      .   S
    Zr175  O178      1.00162      .   S
    N22    O178      1.86355      .   S
    Zr175  O179      1.01658  1_455   S
    N24    O179      1.88871      .   S
    Zr175  O180      1.00896  1_455   S
    N27    O180      1.87422      .   S
    Zr175  O181      1.00706      .   S
    N21    O181      1.87308      .   S
    Zr182  O183      0.97204      .   S
    N6     O183      1.81473      .   S
    Zr182  O184      0.97324      .   S
    N43    O184      1.81690      .   S
    Zr182  O185      1.01002      .   S
    N25    O185      1.87814  1_655   S
    Zr182  O186      0.96784  1_545   S
    N21    O186      1.80758      .   S
    Zr187  O188      0.97347      .   S
    N23    O188      1.81667      .   S
    Zr187  O189      0.96950      .   S
    N45    O189      1.80967      .   S
    Zr187  O190      0.97326      .   S
    N25    O190      1.81638      .   S
    Zr187  O191      0.97274      .   S
    N54    O191      1.81423      .   S
