# CIF file generated by openbabel 2.4.90, see http://openbabel.sf.net
data_I
_chemical_name_common ''
_cell_length_a 13.188
_cell_length_b 13.2
_cell_length_c 23.339
_cell_angle_alpha 90.007
_cell_angle_beta 89.999
_cell_angle_gamma 90.45
_space_group_name_H-M_alt 'P 1'
_space_group_name_Hall 'P 1'
loop_
    _symmetry_equiv_pos_as_xyz
    x,y,z
loop_
    _atom_site_label
    _atom_site_type_symbol
    _atom_site_fract_x
    _atom_site_fract_y
    _atom_site_fract_z
    _atom_site_occupancy
    Lv0     Lv   0.73708   0.14403   0.31311   1.000
    Lv1     Lv   0.76499   0.35596   0.81300   1.000
    Lv2     Lv   0.71593   0.63447   0.81131   1.000
    Lv3     Lv   0.26294   0.85596   0.81310   1.000
    Lv4     Lv   0.28410   0.36551   0.31124   1.000
    Lv5     Lv   0.23503   0.64403   0.31300   1.000
