# CIF file generated by openbabel 2.4.90, see http://openbabel.sf.net
data_I
_chemical_name_common ''
_cell_length_a 13.188
_cell_length_b 13.2
_cell_length_c 23.339
_cell_angle_alpha 90.007
_cell_angle_beta 89.999
_cell_angle_gamma 90.45
_space_group_name_H-M_alt 'P 1'
_space_group_name_Hall 'P 1'
loop_
    _symmetry_equiv_pos_as_xyz
    x,y,z
loop_
    _atom_site_label
    _atom_site_type_symbol
    _atom_site_fract_x
    _atom_site_fract_y
    _atom_site_fract_z
    _atom_site_occupancy
    H0      H    0.60359   0.38096   0.88919   1.000
    H1      H    0.75230   0.33349   0.69448   1.000
    H2      H    0.56488   0.35049   0.70781   1.000
    H3      H    0.77830   0.37852   0.93161   1.000
    H4      H    0.96513   0.36262   0.91828   1.000
    H5      H    0.92572   0.33088   0.73666   1.000
    H6      H    0.27940   0.02174   0.88688   1.000
    H7      H    0.25876   0.86118   0.69370   1.000
    H8      H    0.27247   0.04899   0.70381   1.000
    H9      H    0.26834   0.85052   0.93247   1.000
    H10     H    0.25426   0.66293   0.92247   1.000
    H11     H    0.24592   0.69027   0.73927   1.000
    H12     H    0.19423   0.19311   0.94483   1.000
    H13     H    0.17322   0.14248   0.04782   1.000
    H14     H    0.24626   0.25412   0.12403   1.000
    H15     H    0.38660   0.48495   0.94030   1.000
    H16     H    0.46289   0.60018   0.01300   1.000
    H17     H    0.43700   0.56680   0.11729   1.000
    H18     H    0.05800   0.43806   0.23964   1.000
    H19     H    0.02532   0.40197   0.34391   1.000
    H20     H    0.55397   0.33756   0.27804   1.000
    H21     H    0.52296   0.30842   0.38253   1.000
    H22     H    0.15337   0.15619   0.49475   1.000
    H23     H    0.11466   0.11053   0.59624   1.000
    H24     H    0.16670   0.22528   0.67555   1.000
    H25     H    0.31933   0.48215   0.50641   1.000
    H26     H    0.37346   0.58980   0.58984   1.000
    H27     H    0.33619   0.53024   0.68856   1.000
    H28     H    0.39643   0.61905   0.38900   1.000
    H29     H    0.24773   0.66648   0.19449   1.000
    H30     H    0.43515   0.64948   0.20782   1.000
    H31     H    0.22171   0.62149   0.43162   1.000
    H32     H    0.03489   0.63739   0.41829   1.000
    H33     H    0.07431   0.66909   0.23667   1.000
    H34     H    0.72061   0.97828   0.38689   1.000
    H35     H    0.74127   0.13874   0.19371   1.000
    H36     H    0.72756   0.95093   0.20380   1.000
    H37     H    0.73167   0.14953   0.43248   1.000
    H38     H    0.74575   0.33711   0.42248   1.000
    H39     H    0.75411   0.30967   0.23927   1.000
    H40     H    0.80574   0.80691   0.44487   1.000
    H41     H    0.82675   0.85755   0.54784   1.000
    H42     H    0.75373   0.74589   0.62404   1.000
    H43     H    0.61341   0.51504   0.44037   1.000
    H44     H    0.53716   0.39980   0.51305   1.000
    H45     H    0.56305   0.43319   0.61726   1.000
    H46     H    0.94202   0.56192   0.73963   1.000
    H47     H    0.97470   0.59800   0.84390   1.000
    H48     H    0.44605   0.66240   0.77806   1.000
    H49     H    0.47706   0.69153   0.88255   1.000
    H50     H    0.84667   0.84376   0.99478   1.000
    H51     H    0.88541   0.88942   0.09629   1.000
    H52     H    0.83337   0.77466   0.17558   1.000
    H53     H    0.68072   0.51780   0.00641   1.000
    H54     H    0.62659   0.41015   0.08983   1.000
    H55     H    0.66386   0.46971   0.18856   1.000
    C56     C    0.57456   0.36761   0.79946   1.000
    C57     C    0.63748   0.37175   0.84690   1.000
    C58     C    0.74376   0.36270   0.84115   1.000
    C59     C    0.78604   0.34796   0.78500   1.000
    C60     C    0.71976   0.34412   0.73703   1.000
    C61     C    0.61673   0.35412   0.74406   1.000
    C62     C    0.81040   0.36740   0.88896   1.000
    C63     C    0.91352   0.35818   0.88195   1.000
    C64     C    0.95539   0.34478   0.82643   1.000
    C65     C    0.89229   0.33980   0.77907   1.000
    C66     C    0.27545   0.04578   0.79637   1.000
    C67     C    0.27420   0.98563   0.84496   1.000
    C68     C    0.26602   0.87894   0.84096   1.000
    C69     C    0.25938   0.83302   0.78521   1.000
    C70     C    0.26244   0.89640   0.73598   1.000
    C71     C    0.27010   1.00000   0.74133   1.000
    C72     C    0.26366   0.81550   0.89010   1.000
    C73     C    0.25597   0.71188   0.88493   1.000
    C74     C    0.24994   0.66620   0.82987   1.000
    C75     C    0.25081   0.72634   0.78122   1.000
    C76     C    0.22660   0.23907   0.97918   1.000
    C77     C    0.21469   0.21154   0.03703   1.000
    C78     C    0.25515   0.27324   0.07889   1.000
    C79     C    0.30871   0.36215   0.06310   1.000
    C80     C    0.32083   0.38376   0.00000   1.000
    C81     C    0.37750   0.47004   0.98592   1.000
    C82     C    0.41904   0.53398   0.02650   1.000
    C83     C    0.40490   0.51520   0.08560   1.000
    C84     C    0.35087   0.43141   0.10347   1.000
    C85     C    0.41836   0.38370   0.19740   1.000
    C86     C    0.23478   0.43126   0.18464   1.000
    C87     C    0.21709   0.40811   0.24569   1.000
    C88     C    0.11956   0.41579   0.26795   1.000
    C89     C    0.10138   0.39619   0.32609   1.000
    C90     C    0.18080   0.37016   0.36228   1.000
    C91     C    0.28088   0.36224   0.34074   1.000
    O92     O    0.83131   0.53782   0.65228   1.000
    O93     O    0.49859   0.63103   0.67522   1.000
    O94     O    0.92497   0.64397   0.94488   1.000
    C95     C    0.29907   0.38044   0.28140   1.000
    C96     C    0.39861   0.37029   0.25940   1.000
    C97     C    0.47806   0.34502   0.29571   1.000
    C98     C    0.46059   0.32864   0.35428   1.000
    C99     C    0.36321   0.33626   0.37677   1.000
    C100    C    0.34584   0.31534   0.43800   1.000
    C101    C    0.15947   0.35015   0.42340   1.000
    C102    C    0.22415   0.29691   0.51667   1.000
    C103    C    0.17546   0.20707   0.52940   1.000
    C104    C    0.15376   0.18165   0.58686   1.000
    C105    C    0.18186   0.24518   0.63109   1.000
    C106    C    0.23312   0.33726   0.61897   1.000
    C107    C    0.25367   0.36526   0.56072   1.000
    C108    C    0.30335   0.45884   0.55028   1.000
    C109    C    0.33256   0.51867   0.59572   1.000
    C110    C    0.31195   0.48539   0.65185   1.000
    C111    C    0.42546   0.63238   0.29947   1.000
    C112    C    0.36254   0.62824   0.34691   1.000
    C113    C    0.25626   0.63729   0.34116   1.000
    C114    C    0.21399   0.65202   0.28501   1.000
    C115    C    0.28026   0.65586   0.23704   1.000
    C116    C    0.38329   0.64586   0.24407   1.000
    C117    C    0.18962   0.63260   0.38897   1.000
    C118    C    0.08650   0.64182   0.38196   1.000
    C119    C    0.04464   0.65520   0.32644   1.000
    C120    C    0.10773   0.66017   0.27908   1.000
    C121    C    0.72457   0.95420   0.29638   1.000
    C122    C    0.72582   0.01437   0.34497   1.000
    C123    C    0.73400   0.12106   0.34097   1.000
    C124    C    0.74065   0.16695   0.28522   1.000
    C125    C    0.73758   0.10355   0.23599   1.000
    C126    C    0.72992   0.99995   0.24134   1.000
    C127    C    0.73635   0.18452   0.39018   1.000
    C128    C    0.74404   0.28814   0.38493   1.000
    C129    C    0.75008   0.33379   0.32987   1.000
    C130    C    0.74922   0.27363   0.28123   1.000
    C131    C    0.77337   0.76094   0.47921   1.000
    C132    C    0.78529   0.78849   0.53705   1.000
    C133    C    0.74485   0.72678   0.57890   1.000
    C134    C    0.69131   0.63785   0.56312   1.000
    C135    C    0.67917   0.61623   0.50320   1.000
    C136    C    0.62252   0.52995   0.48592   1.000
    C137    C    0.58099   0.46601   0.52650   1.000
    C138    C    0.59514   0.48479   0.58558   1.000
    C139    C    0.64916   0.56859   0.60346   1.000
    C140    C    0.58166   0.61629   0.69740   1.000
    C141    C    0.76525   0.56873   0.68464   1.000
    C142    C    0.78293   0.59187   0.74568   1.000
    C143    C    0.88046   0.58419   0.76790   1.000
    C144    C    0.89865   0.60378   0.82609   1.000
    C145    C    0.81922   0.62981   0.86228   1.000
    C146    C    0.71914   0.63772   0.84074   1.000
    C147    C    0.70095   0.61954   0.78140   1.000
    C148    C    0.60141   0.62969   0.75941   1.000
    C149    C    0.52196   0.65494   0.79572   1.000
    C150    C    0.53943   0.67132   0.85400   1.000
    C151    C    0.63681   0.66370   0.87678   1.000
    C152    C    0.65418   0.68462   0.93831   1.000
    C153    C    0.84056   0.64982   0.92344   1.000
    C154    C    0.77589   0.70305   0.01669   1.000
    C155    C    0.82459   0.79289   0.02940   1.000
    C156    C    0.84629   0.81829   0.08690   1.000
    C157    C    0.81820   0.75477   0.13112   1.000
    C158    C    0.76693   0.66269   0.11899   1.000
    C159    C    0.74638   0.63470   0.06074   1.000
    C160    C    0.69670   0.54111   0.05029   1.000
    C161    C    0.66750   0.48128   0.09571   1.000
    C162    C    0.68809   0.51456   0.15185   1.000
    N163    N    0.27770   0.32140   0.96262   1.000
    N164    N    0.33454   0.41367   0.16379   1.000
    N165    N    0.24441   0.32220   0.45755   1.000
    N166    N    0.26358   0.39882   0.66342   1.000
    N167    N    0.72229   0.67860   0.46263   1.000
    N168    N    0.66549   0.58632   0.66378   1.000
    N169    N    0.75562   0.67776   0.95756   1.000
    N170    N    0.73647   0.60113   0.16343   1.000
    O171    O    0.16872   0.46217   0.15229   1.000
    O172    O    0.50144   0.36896   0.17520   1.000
    O173    O    0.07506   0.35601   0.44488   1.000
    O174    O    0.41389   0.29313   0.47191   1.000
    O175    O    0.58614   0.70684   0.97193   1.000
loop_
    _geom_bond_atom_site_label_1
    _geom_bond_atom_site_label_2
    _geom_bond_distance
    _geom_bond_site_symmetry_2
    _ccdc_geom_bond_type
    C80    C79       1.50836      .   S
    C80    N163      1.32465  1_554   S
    C80    C81       1.39645  1_554   S
    H53    C160      1.08942      .   S
    H16    C82       1.09061      .   S
    C154   C155      1.37650      .   S
    C154   C159      1.42026      .   S
    C154   N169      1.44427  1_554   S
    C82    C83       1.41355      .   S
    C82    C81       1.37918  1_554   S
    C155   C156      1.41200      .   S
    C155   H50       1.08884  1_554   S
    C77    H13       1.08887      .   S
    C77    C78       1.37673      .   S
    C77    C76       1.40673  1_554   S
    C160   C159      1.41486      .   S
    C160   C161      1.37525      .   S
    C159   C158      1.43407      .   S
    C79    C78       1.41400      .   S
    C79    C84       1.42283      .   S
    C78    H14       1.08944      .   S
    C83    C84       1.37581      .   S
    C83    H17       1.08876      .   S
    C156   H51       1.08988      .   S
    C156   C157      1.37870      .   S
    H54    C161      1.08785      .   S
    C161   C162      1.40767      .   S
    C84    N164      1.44305      .   S
    C158   C157      1.41483      .   S
    C158   N170      1.37566      .   S
    C157   H52       1.08849      .   S
    C162   N170      1.33206      .   S
    C162   H55       1.08800      .   S
    O171   C86       1.22524      .   S
    N164   C86       1.42348      .   S
    N164   C85       1.41456      .   S
    O172   C85       1.22880      .   S
    C86    C87       1.47543      .   S
    H35    C125      1.09166      .   S
    H29    C115      1.09132      .   S
    C85    C96       1.48066      .   S
    H36    C126      1.08938      .   S
    H30    C116      1.08864      .   S
    C125   C126      1.37611  1_545   S
    C125   C124      1.42183      .   S
    H33    C120      1.09030      .   S
    C115   C116      1.37601      .   S
    C115   C114      1.42101      .   S
    H39    C130      1.09052      .   S
    H18    C88       1.08896      .   S
    C126   C121      1.42102      .   S
    C116   C111      1.41926      .   S
    C87    C88       1.39161      .   S
    C87    C95       1.41535      .   S
    C96    C95       1.41697      .   S
    C96    C97       1.39020      .   S
    C88    C89       1.40170      .   S
    H20    C97       1.08790      .   S
    C120   C114      1.41305      .   S
    C120   C119      1.38478      .   S
    C130   C124      1.41478      .   S
    C130   C129      1.38535      .   S
    C95    C91       1.42564      .   S
    C114   C113      1.43799      .   S
    C124   C123      1.43775      .   S
    C97    C98       1.40277      .   S
    C121   C122      1.38447  1_565   S
    C111   C112      1.38442      .   S
    C89    H19       1.08905      .   S
    C89    C90       1.39080      .   S
    C119   C118      1.42011      .   S
    C129   C128      1.42133      .   S
    C91    C90       1.41698      .   S
    C91    C99       1.41760      .   S
    C123   C122      1.41459      .   S
    C123   C127      1.42170      .   S
    C113   C112      1.41402      .   S
    C113   C117      1.42147      .   S
    C122   H34       1.09016  1_545   S
    C112   H28       1.08642      .   S
    C98    C99       1.39174      .   S
    C98    H21       1.08901      .   S
    C90    C101      1.47738      .   S
    C99    C100      1.47309      .   S
    C118   C117      1.37603      .   S
    C118   H32       1.08861      .   S
    C128   C127      1.37625      .   S
    C128   H38       1.08905      .   S
    C117   H31       1.09205      .   S
    C127   H37       1.09154      .   S
    C101   O173      1.22378      .   S
    C101   N165      1.42576      .   S
    C100   N165      1.41700      .   S
    C100   O174      1.23356      .   S
    H43    C136      1.08763      .   S
    H40    C131      1.09023      .   S
    N165   C102      1.44406      .   S
    N167   C131      1.33170      .   S
    N167   C135      1.37495      .   S
    C131   C132      1.40647      .   S
    C136   C135      1.41582      .   S
    C136   C137      1.37920      .   S
    H22    C103      1.08934      .   S
    C135   C134      1.43596      .   S
    H25    C108      1.08927      .   S
    H44    C137      1.09023      .   S
    C102   C103      1.37666      .   S
    C102   C107      1.42009      .   S
    C137   C138      1.41305      .   S
    C103   C104      1.41118      .   S
    C132   H41       1.08884      .   S
    C132   C133      1.37670      .   S
    C108   C107      1.41488      .   S
    C108   C109      1.37545      .   S
    C107   C106      1.43414      .   S
    C134   C133      1.41385      .   S
    C134   C139      1.42250      .   S
    C133   H42       1.08938      .   S
    C138   C139      1.37581      .   S
    C138   H45       1.08870      .   S
    C104   H23       1.08988      .   S
    C104   C105      1.37872      .   S
    H26    C109      1.08788      .   S
    C109   C110      1.40755      .   S
    C139   N168      1.44299      .   S
    C106   C105      1.41484      .   S
    C106   N166      1.37569      .   S
    C105   H24       1.08853      .   S
    C110   N166      1.33207      .   S
    C110   H27       1.08790      .   S
    O92    C141      1.22531      .   S
    N168   C141      1.42359      .   S
    N168   C140      1.41462      .   S
    O93    C140      1.22861      .   S
    C141   C142      1.47511      .   S
    H7     C70       1.09169      .   S
    H1     C60       1.09131      .   S
    C140   C148      1.48083      .   S
    H8     C71       1.08898  1_545   S
    H2     C61       1.08863      .   S
    C70    C71       1.37612      .   S
    C70    C69       1.42179      .   S
    H5     C65       1.09029      .   S
    C60    C61       1.37600      .   S
    C60    C59       1.42101      .   S
    H11    C75       1.09033      .   S
    H46    C143      1.08832      .   S
    C71    C66       1.42106  1_565   S
    C61    C56       1.41923      .   S
    C142   C143      1.39131      .   S
    C142   C147      1.41540      .   S
    C148   C147      1.41691      .   S
    C148   C149      1.39009      .   S
    C143   C144      1.40276      .   S
    H48    C149      1.08785      .   S
    C65    C59       1.41304      .   S
    C65    C64       1.38478      .   S
    C75    C69       1.41480      .   S
    C75    C74       1.38550      .   S
    C147   C146      1.42557      .   S
    C59    C58       1.43797      .   S
    C69    C68       1.43777      .   S
    C149   C150      1.39611      .   S
    C66    C67       1.38445  1_545   S
    C56    C57       1.38441      .   S
    C144   H47       1.08898      .   S
    C144   C145      1.39071      .   S
    C64    C63       1.42009      .   S
    C74    C73       1.42135      .   S
    C146   C145      1.41703      .   S
    C146   C151      1.41764      .   S
    C68    C67       1.41459      .   S
    C68    C72       1.42035      .   S
    C58    C57       1.41402      .   S
    C58    C62       1.42147      .   S
    C67    H6        1.09018  1_565   S
    C57    H0        1.09063      .   S
    C150   C151      1.39433      .   S
    C150   H49       1.09320      .   S
    C145   C153      1.47823      .   S
    C151   C152      1.47983      .   S
    C63    C62       1.37602      .   S
    C63    H4        1.08860      .   S
    C73    C72       1.37609      .   S
    C73    H10       1.08884      .   S
    C62    H3        1.09204      .   S
    C72    H9        1.09305      .   S
    C153   O94       1.22346      .   S
    C153   N169      1.42524      .   S
    C152   N169      1.41479      .   S
    C152   O175      1.22915      .   S
    H15    C81       1.08927      .   S
    H12    C76       1.09029      .   S
    N163   C76       1.33165      .   S
