# CIF file generated by openbabel 2.4.90, see http://openbabel.sf.net
data_I
_chemical_name_common ''
_cell_length_a 13.188
_cell_length_b 13.2
_cell_length_c 23.339
_cell_angle_alpha 90.007
_cell_angle_beta 89.999
_cell_angle_gamma 90.45
_space_group_name_H-M_alt 'P 1'
_space_group_name_Hall 'P 1'
loop_
    _symmetry_equiv_pos_as_xyz
    x,y,z
loop_
    _atom_site_label
    _atom_site_type_symbol
    _atom_site_fract_x
    _atom_site_fract_y
    _atom_site_fract_z
    _atom_site_occupancy
    Zn0     Zn   0.27579   0.34729   0.87463   1.000
    Zn1     Zn   0.74638   0.63538   0.25038   1.000
    Zn2     Zn   0.72423   0.65270   0.37464   1.000
    Zn3     Zn   0.25364   0.36459   0.75037   1.000
    C4      C    0.46171   0.37386   0.80636   1.000
    C5      C    0.24718   0.55287   0.82454   1.000
    C6      C    0.28002   0.15908   0.80178   1.000
    C7      C    0.06821   0.33926   0.81916   1.000
    O8      O    0.89755   0.65784   0.26807   1.000
    C9      C    0.53831   0.62613   0.30637   1.000
    C10     C    0.75284   0.44712   0.32454   1.000
    C11     C    0.72000   0.84090   0.30179   1.000
    C12     C    0.93181   0.66073   0.31917   1.000
    O13     O    0.42707   0.36889   0.85728   1.000
    O14     O    0.40980   0.38265   0.76071   1.000
    O15     O    0.25783   0.50266   0.87068   1.000
    O16     O    0.23616   0.51582   0.77453   1.000
    O17     O    0.28765   0.19574   0.85208   1.000
    O18     O    0.27494   0.20965   0.75533   1.000
    O19     O    0.12028   0.33331   0.86492   1.000
    O20     O    0.10247   0.34214   0.76806   1.000
    O21     O    0.57295   0.63110   0.35729   1.000
    O22     O    0.59022   0.61733   0.26072   1.000
    O23     O    0.74220   0.49734   0.37069   1.000
    O24     O    0.76386   0.48415   0.27454   1.000
    O25     O    0.71237   0.80426   0.35209   1.000
    O26     O    0.72508   0.79032   0.25530   1.000
    O27     O    0.87973   0.66668   0.36493   1.000
    Ts28    Ts   0.27642   0.33866   0.90396   1.000
    Ts29    Ts   0.74308   0.62396   0.22140   1.000
    Ts30    Ts   0.72359   0.66134   0.40397   1.000
    Ts31    Ts   0.25696   0.37600   0.72139   1.000
    Og32    Og   0.49933   0.37178   0.80406   1.000
    Og33    Og   0.24810   0.59064   0.82632   1.000
    Og34    Og   0.27850   0.12131   0.79998   1.000
    Og35    Og   0.03060   0.34110   0.82158   1.000
    Og36    Og   0.50069   0.62821   0.30407   1.000
    Og37    Og   0.75192   0.40934   0.32632   1.000
    Og38    Og   0.72152   0.87867   0.29999   1.000
    Og39    Og   0.96942   0.65888   0.32159   1.000
loop_
    _geom_bond_atom_site_label_1
    _geom_bond_atom_site_label_2
    _geom_bond_distance
    _geom_bond_site_symmetry_2
    _ccdc_geom_bond_type
    Zn1    O26       2.06970      .   S
    Zn1    O22       2.08531      .   S
    Zn1    O8        2.05516      .   S
    Zn1    O24       2.08888      .   S
    O26    C11       1.27598      .   S
    O22    C9        1.27221      .   S
    O8     C12       1.27578      .   S
    O24    C10       1.27314      .   S
    C11    O25       1.27341      .   S
    C9     O21       1.27470      .   S
    C12    O27       1.27247      .   S
    C10    O23       1.27298      .   S
    O25    Zn2       2.07575      .   S
    O21    Zn2       2.05352      .   S
    O27    Zn2       2.07004      .   S
    O23    Zn2       2.06833      .   S
    Zn3    O18       2.06988      .   S
    Zn3    O14       2.08531      .   S
    Zn3    O20       2.05516      .   S
    Zn3    O16       2.08878      .   S
    O18    C6        1.27524      .   S
    O14    C4        1.27223      .   S
    O20    C7        1.27579      .   S
    O16    C5        1.27331      .   S
    C6     O17       1.27337      .   S
    C4     O13       1.27471      .   S
    C7     O19       1.27248      .   S
    C5     O15       1.27284      .   S
    O17    Zn0       2.07565      .   S
    O13    Zn0       2.05354      .   S
    O19    Zn0       2.07006      .   S
    O15    Zn0       2.06843      .   S
    Zn3    Zn0       2.92391      .   S
    Zn1    Zn2       2.92388      .   S
    Zn0    Ts28      0.69402      .   S
    Zn1    Ts29      0.69430      .   S
    Zn2    Ts30      0.69400      .   S
    Zn3    Ts31      0.69432      .   S
    C4     Og32      0.49996      .   S
    C5     Og33      0.50045      .   S
    C6     Og34      0.50055      .   S
    C7     Og35      0.49999      .   S
    C9     Og36      0.49996      .   S
    C10    Og37      0.50044      .   S
    C11    Og38      0.50055      .   S
    C12    Og39      0.49999      .   S
