# CIF file generated by openbabel 2.4.90, see http://openbabel.sf.net
data_I
_chemical_name_common ''
_cell_length_a 13.188
_cell_length_b 13.2
_cell_length_c 23.339
_cell_angle_alpha 90.007
_cell_angle_beta 89.999
_cell_angle_gamma 90.45
_space_group_name_H-M_alt 'P 1'
_space_group_name_Hall 'P 1'
loop_
    _symmetry_equiv_pos_as_xyz
    x,y,z
loop_
    _atom_site_label
    _atom_site_type_symbol
    _atom_site_fract_x
    _atom_site_fract_y
    _atom_site_fract_z
    _atom_site_occupancy
    C0      C    0.46171   0.37386   0.80636   1.000
    C1      C    0.24718   0.55287   0.82454   1.000
    C2      C    0.28002   0.15908   0.80178   1.000
    C3      C    0.06821   0.33926   0.81916   1.000
    C4      C    0.53831   0.62613   0.30637   1.000
    C5      C    0.75284   0.44712   0.32454   1.000
    C6      C    0.72000   0.84090   0.30179   1.000
    C7      C    0.93181   0.66073   0.31917   1.000
