# CIF file generated by openbabel 2.4.90, see http://openbabel.sf.net
data_I
_chemical_name_common ''
_cell_length_a 13.188
_cell_length_b 13.2
_cell_length_c 23.339
_cell_angle_alpha 90.007
_cell_angle_beta 89.999
_cell_angle_gamma 90.45
_space_group_name_H-M_alt 'P 1'
_space_group_name_Hall 'P 1'
loop_
    _symmetry_equiv_pos_as_xyz
    x,y,z
loop_
    _atom_site_label
    _atom_site_type_symbol
    _atom_site_fract_x
    _atom_site_fract_y
    _atom_site_fract_z
    _atom_site_occupancy
    C0      C    0.25364   0.36459   0.75037   1.000
    C1      C    0.27579   0.34729   0.87463   1.000
    C2      C    0.74638   0.63538   0.25038   1.000
    C3      C    0.72423   0.65270   0.37464   1.000
    C4      C    0.60359   0.38096   0.88919   1.000
    C5      C    0.75230   0.33349   0.69448   1.000
    C6      C    0.56488   0.35049   0.70781   1.000
    C7      C    0.77830   0.37852   0.93161   1.000
    C8      C    0.96513   0.36262   0.91828   1.000
    C9      C    0.92572   0.33088   0.73666   1.000
    C10     C    0.27940   0.02174   0.88688   1.000
    C11     C    0.25876   0.86118   0.69370   1.000
    C12     C    0.27247   0.04899   0.70381   1.000
    C13     C    0.26834   0.85052   0.93247   1.000
    C14     C    0.25426   0.66293   0.92247   1.000
    C15     C    0.24592   0.69027   0.73927   1.000
    C16     C    0.19423   0.19311   0.94483   1.000
    C17     C    0.17322   0.14248   0.04782   1.000
    C18     C    0.24626   0.25412   0.12403   1.000
    C19     C    0.38660   0.48495   0.94030   1.000
    C20     C    0.46289   0.60018   0.01300   1.000
    C21     C    0.43700   0.56680   0.11729   1.000
    C22     C    0.05800   0.43806   0.23964   1.000
    C23     C    0.02532   0.40197   0.34391   1.000
    C24     C    0.55397   0.33756   0.27804   1.000
    C25     C    0.52296   0.30842   0.38253   1.000
    C26     C    0.15337   0.15619   0.49475   1.000
    C27     C    0.11466   0.11053   0.59624   1.000
    C28     C    0.16670   0.22528   0.67555   1.000
    C29     C    0.31933   0.48215   0.50641   1.000
    C30     C    0.37346   0.58980   0.58984   1.000
    C31     C    0.33619   0.53024   0.68856   1.000
    C32     C    0.39643   0.61905   0.38900   1.000
    C33     C    0.24773   0.66648   0.19449   1.000
    C34     C    0.43515   0.64948   0.20782   1.000
    C35     C    0.22171   0.62149   0.43162   1.000
    C36     C    0.03489   0.63739   0.41829   1.000
    C37     C    0.07431   0.66909   0.23667   1.000
    C38     C    0.72061   0.97828   0.38689   1.000
    C39     C    0.74127   0.13874   0.19371   1.000
    C40     C    0.72756   0.95093   0.20380   1.000
    C41     C    0.73167   0.14953   0.43248   1.000
    C42     C    0.74575   0.33711   0.42248   1.000
    C43     C    0.75411   0.30967   0.23927   1.000
    C44     C    0.80574   0.80691   0.44487   1.000
    C45     C    0.82675   0.85755   0.54784   1.000
    C46     C    0.75373   0.74589   0.62404   1.000
    C47     C    0.61341   0.51504   0.44037   1.000
    C48     C    0.53716   0.39980   0.51305   1.000
    C49     C    0.56305   0.43319   0.61726   1.000
    C50     C    0.94202   0.56192   0.73963   1.000
    C51     C    0.97470   0.59800   0.84390   1.000
    C52     C    0.44605   0.66240   0.77806   1.000
    C53     C    0.47706   0.69153   0.88255   1.000
    C54     C    0.84667   0.84376   0.99478   1.000
    C55     C    0.88541   0.88942   0.09629   1.000
    C56     C    0.83337   0.77466   0.17558   1.000
    C57     C    0.68072   0.51780   0.00641   1.000
    C58     C    0.62659   0.41015   0.08983   1.000
    C59     C    0.66386   0.46971   0.18856   1.000
    C60     C    0.46171   0.37386   0.80636   1.000
    C61     C    0.57456   0.36761   0.79946   1.000
    C62     C    0.63748   0.37175   0.84690   1.000
    C63     C    0.74376   0.36270   0.84115   1.000
    C64     C    0.78604   0.34796   0.78500   1.000
    C65     C    0.71976   0.34412   0.73703   1.000
    C66     C    0.61673   0.35412   0.74406   1.000
    C67     C    0.81040   0.36740   0.88896   1.000
    C68     C    0.91352   0.35818   0.88195   1.000
    C69     C    0.95539   0.34478   0.82643   1.000
    C70     C    0.89229   0.33980   0.77907   1.000
    C71     C    0.24718   0.55287   0.82454   1.000
    C72     C    0.28002   0.15908   0.80178   1.000
    C73     C    0.27545   0.04578   0.79637   1.000
    C74     C    0.27420   0.98563   0.84496   1.000
    C75     C    0.26602   0.87894   0.84096   1.000
    C76     C    0.25938   0.83302   0.78521   1.000
    C77     C    0.26244   0.89640   0.73598   1.000
    C78     C    0.27010   1.00000   0.74133   1.000
    C79     C    0.26366   0.81550   0.89010   1.000
    C80     C    0.25597   0.71188   0.88493   1.000
    C81     C    0.24994   0.66620   0.82987   1.000
    C82     C    0.25081   0.72634   0.78122   1.000
    C83     C    0.06821   0.33926   0.81916   1.000
    C84     C    0.22660   0.23907   0.97918   1.000
    C85     C    0.21469   0.21154   0.03703   1.000
    C86     C    0.25515   0.27324   0.07889   1.000
    C87     C    0.30871   0.36215   0.06310   1.000
    C88     C    0.32083   0.38376   0.00000   1.000
    C89     C    0.37750   0.47004   0.98592   1.000
    C90     C    0.41904   0.53398   0.02650   1.000
    C91     C    0.40490   0.51520   0.08560   1.000
    C92     C    0.35087   0.43141   0.10347   1.000
    C93     C    0.41836   0.38370   0.19740   1.000
    C94     C    0.23478   0.43126   0.18464   1.000
    C95     C    0.21709   0.40811   0.24569   1.000
    C96     C    0.11956   0.41579   0.26795   1.000
    C97     C    0.10138   0.39619   0.32609   1.000
    C98     C    0.18080   0.37016   0.36228   1.000
    C99     C    0.28088   0.36224   0.34074   1.000
    C100    C    0.29907   0.38044   0.28140   1.000
    C101    C    0.39861   0.37029   0.25940   1.000
    C102    C    0.47806   0.34502   0.29571   1.000
    C103    C    0.46059   0.32864   0.35428   1.000
    C104    C    0.36321   0.33626   0.37677   1.000
    C105    C    0.34584   0.31534   0.43800   1.000
    C106    C    0.15947   0.35015   0.42340   1.000
    C107    C    0.22415   0.29691   0.51667   1.000
    C108    C    0.17546   0.20707   0.52940   1.000
    C109    C    0.15376   0.18165   0.58686   1.000
    C110    C    0.18186   0.24518   0.63109   1.000
    C111    C    0.23312   0.33726   0.61897   1.000
    C112    C    0.25367   0.36526   0.56072   1.000
    C113    C    0.30335   0.45884   0.55028   1.000
    C114    C    0.33256   0.51867   0.59572   1.000
    C115    C    0.31195   0.48539   0.65185   1.000
    C116    C    0.53831   0.62613   0.30637   1.000
    C117    C    0.42546   0.63238   0.29947   1.000
    C118    C    0.36254   0.62824   0.34691   1.000
    C119    C    0.25626   0.63729   0.34116   1.000
    C120    C    0.21399   0.65202   0.28501   1.000
    C121    C    0.28026   0.65586   0.23704   1.000
    C122    C    0.38329   0.64586   0.24407   1.000
    C123    C    0.18962   0.63260   0.38897   1.000
    C124    C    0.08650   0.64182   0.38196   1.000
    C125    C    0.04464   0.65520   0.32644   1.000
    C126    C    0.10773   0.66017   0.27908   1.000
    C127    C    0.75284   0.44712   0.32454   1.000
    C128    C    0.72000   0.84090   0.30179   1.000
    C129    C    0.72457   0.95420   0.29638   1.000
    C130    C    0.72582   0.01437   0.34497   1.000
    C131    C    0.73400   0.12106   0.34097   1.000
    C132    C    0.74065   0.16695   0.28522   1.000
    C133    C    0.73758   0.10355   0.23599   1.000
    C134    C    0.72992   0.99995   0.24134   1.000
    C135    C    0.73635   0.18452   0.39018   1.000
    C136    C    0.74404   0.28814   0.38493   1.000
    C137    C    0.75008   0.33379   0.32987   1.000
    C138    C    0.74922   0.27363   0.28123   1.000
    C139    C    0.93181   0.66073   0.31917   1.000
    C140    C    0.77337   0.76094   0.47921   1.000
    C141    C    0.78529   0.78849   0.53705   1.000
    C142    C    0.74485   0.72678   0.57890   1.000
    C143    C    0.69131   0.63785   0.56312   1.000
    C144    C    0.67917   0.61623   0.50320   1.000
    C145    C    0.62252   0.52995   0.48592   1.000
    C146    C    0.58099   0.46601   0.52650   1.000
    C147    C    0.59514   0.48479   0.58558   1.000
    C148    C    0.64916   0.56859   0.60346   1.000
    C149    C    0.58166   0.61629   0.69740   1.000
    C150    C    0.76525   0.56873   0.68464   1.000
    C151    C    0.78293   0.59187   0.74568   1.000
    C152    C    0.88046   0.58419   0.76790   1.000
    C153    C    0.89865   0.60378   0.82609   1.000
    C154    C    0.81922   0.62981   0.86228   1.000
    C155    C    0.71914   0.63772   0.84074   1.000
    C156    C    0.70095   0.61954   0.78140   1.000
    C157    C    0.60141   0.62969   0.75941   1.000
    C158    C    0.52196   0.65494   0.79572   1.000
    C159    C    0.53943   0.67132   0.85400   1.000
    C160    C    0.63681   0.66370   0.87678   1.000
    C161    C    0.65418   0.68462   0.93831   1.000
    C162    C    0.84056   0.64982   0.92344   1.000
    C163    C    0.77589   0.70305   0.01669   1.000
    C164    C    0.82459   0.79289   0.02940   1.000
    C165    C    0.84629   0.81829   0.08690   1.000
    C166    C    0.81820   0.75477   0.13112   1.000
    C167    C    0.76693   0.66269   0.11899   1.000
    C168    C    0.74638   0.63470   0.06074   1.000
    C169    C    0.69670   0.54111   0.05029   1.000
    C170    C    0.66750   0.48128   0.09571   1.000
    C171    C    0.68809   0.51456   0.15185   1.000
    C172    C    0.27770   0.32140   0.96262   1.000
    C173    C    0.33454   0.41367   0.16379   1.000
    C174    C    0.24441   0.32220   0.45755   1.000
    C175    C    0.26358   0.39882   0.66342   1.000
    C176    C    0.72229   0.67860   0.46263   1.000
    C177    C    0.66549   0.58632   0.66378   1.000
    C178    C    0.75562   0.67776   0.95756   1.000
    C179    C    0.73647   0.60113   0.16343   1.000
    C180    C    0.42707   0.36889   0.85728   1.000
    C181    C    0.40980   0.38265   0.76071   1.000
    C182    C    0.25783   0.50266   0.87068   1.000
    C183    C    0.23616   0.51582   0.77453   1.000
    C184    C    0.28765   0.19574   0.85208   1.000
    C185    C    0.27494   0.20965   0.75533   1.000
    C186    C    0.12028   0.33331   0.86492   1.000
    C187    C    0.10247   0.34214   0.76806   1.000
    C188    C    0.16872   0.46217   0.15229   1.000
    C189    C    0.50144   0.36896   0.17520   1.000
    C190    C    0.07506   0.35601   0.44488   1.000
    C191    C    0.41389   0.29313   0.47191   1.000
    C192    C    0.57295   0.63110   0.35729   1.000
    C193    C    0.59022   0.61733   0.26072   1.000
    C194    C    0.74220   0.49734   0.37069   1.000
    C195    C    0.76386   0.48415   0.27454   1.000
    C196    C    0.71237   0.80426   0.35209   1.000
    C197    C    0.72508   0.79032   0.25530   1.000
    C198    C    0.87973   0.66668   0.36493   1.000
    C199    C    0.89755   0.65784   0.26807   1.000
    C200    C    0.83131   0.53782   0.65228   1.000
    C201    C    0.49859   0.63103   0.67522   1.000
    C202    C    0.92497   0.64397   0.94488   1.000
    C203    C    0.58614   0.70684   0.97193   1.000
    O204    O    0.31477   0.37296   0.03155   1.000
    O205    O    0.29927   0.35258   0.98131   1.000
    O206    O    0.34917   0.42690   0.99296   1.000
    O207    O    0.68871   0.52946   0.02835   1.000
    O208    O    0.44097   0.56708   0.01975   1.000
    O209    O    0.80024   0.74797   0.02305   1.000
    O210    O    0.76113   0.66887   0.03872   1.000
    O211    O    0.76576   0.69040   0.98713   1.000
    O212    O    0.41197   0.52459   0.05605   1.000
    O213    O    0.39827   0.50201   0.00621   1.000
    O214    O    0.83544   0.80559   0.05815   1.000
    O215    O    0.83563   0.81832   0.01209   1.000
    O216    O    0.19395   0.17701   0.04243   1.000
    O217    O    0.23492   0.24239   0.05796   1.000
    O218    O    0.22065   0.22530   0.00811   1.000
    O219    O    0.72154   0.58790   0.05552   1.000
    O220    O    0.68210   0.51119   0.07300   1.000
    O221    O    0.75665   0.64869   0.08987   1.000
    O222    O    0.28193   0.31769   0.07100   1.000
    O223    O    0.32979   0.39678   0.08329   1.000
    O224    O    0.25070   0.26368   0.10146   1.000
    O225    O    0.37789   0.47330   0.09454   1.000
    O226    O    0.42095   0.54100   0.10145   1.000
    O227    O    0.86585   0.85385   0.09160   1.000
    O228    O    0.83225   0.78653   0.10901   1.000
    O229    O    0.64705   0.44571   0.09277   1.000
    O230    O    0.67780   0.49792   0.12378   1.000
    O231    O    0.34270   0.42254   0.13363   1.000
    O232    O    0.79256   0.70873   0.12506   1.000
    O233    O    0.75170   0.63191   0.14121   1.000
    O234    O    0.82578   0.76472   0.15335   1.000
    O235    O    0.71228   0.55785   0.15764   1.000
    O236    O    0.67598   0.49214   0.17021   1.000
    O237    O    0.20175   0.44671   0.16847   1.000
    O238    O    0.74142   0.61826   0.20691   1.000
    O239    O    0.28466   0.42246   0.17422   1.000
    O240    O    0.37645   0.39868   0.18060   1.000
    O241    O    0.45990   0.37633   0.18630   1.000
    O242    O    0.22593   0.41969   0.21517   1.000
    O243    O    0.73943   0.12114   0.21485   1.000
    O244    O    0.26400   0.66117   0.21577   1.000
    O245    O    0.40849   0.37699   0.22840   1.000
    O246    O    0.72874   0.97544   0.22257   1.000
    O247    O    0.40922   0.64767   0.22595   1.000
    O248    O    0.73375   0.05175   0.23867   1.000
    O249    O    0.73912   0.13525   0.26061   1.000
    O250    O    0.09102   0.66463   0.25788   1.000
    O251    O    0.33178   0.65086   0.24056   1.000
    O252    O    0.24713   0.65394   0.26103   1.000
    O253    O    0.75166   0.29165   0.26025   1.000
    O254    O    0.08878   0.42693   0.25380   1.000
    O255    O    0.72725   0.97707   0.26886   1.000
    O256    O    0.40438   0.63912   0.27177   1.000
    O257    O    0.16832   0.41195   0.25682   1.000
    O258    O    0.25808   0.39428   0.26355   1.000
    O259    O    0.73573   0.71285   0.25284   1.000
    O260    O    0.66830   0.62636   0.25555   1.000
    O261    O    0.82197   0.64661   0.25923   1.000
    O262    O    0.75512   0.55977   0.26246   1.000
    O263    O    0.72254   0.81561   0.27855   1.000
    O264    O    0.34884   0.37536   0.27040   1.000
    O265    O    0.43834   0.35766   0.27756   1.000
    O266    O    0.56427   0.62173   0.28355   1.000
    O267    O    0.11047   0.40599   0.29702   1.000
    O268    O    0.91468   0.65928   0.29362   1.000
    O269    O    0.75835   0.46564   0.29954   1.000
    O270    O    0.51601   0.34129   0.28688   1.000
    O271    O    0.16086   0.65610   0.28205   1.000
    O272    O    0.07618   0.65769   0.30276   1.000
    O273    O    0.74493   0.22029   0.28323   1.000
    O274    O    0.74965   0.30371   0.30555   1.000
    O275    O    0.28997   0.37134   0.31107   1.000
    O276    O    0.23512   0.64466   0.31309   1.000
    O277    O    0.73732   0.14400   0.31310   1.000
    O278    O    0.46932   0.33683   0.32500   1.000
    O279    O    0.72228   0.89755   0.29909   1.000
    O280    O    0.72519   0.98429   0.32068   1.000
    O281    O    0.48188   0.62925   0.30292   1.000
    O282    O    0.39400   0.63031   0.32319   1.000
    O283    O    0.71618   0.82258   0.32694   1.000
    O284    O    0.55563   0.62861   0.33183   1.000
    O285    O    0.98822   0.65796   0.32281   1.000
    O286    O    0.90577   0.66370   0.34205   1.000
    O287    O    0.75146   0.39046   0.32721   1.000
    O288    O    0.74752   0.47223   0.34762   1.000
    O289    O    0.06335   0.39908   0.33500   1.000
    O290    O    0.14109   0.38318   0.34419   1.000
    O291    O    0.06557   0.64851   0.35420   1.000
    O292    O    0.74706   0.31097   0.35740   1.000
    O293    O    0.23084   0.36620   0.35151   1.000
    O294    O    0.32204   0.34925   0.35876   1.000
    O295    O    0.72991   0.06771   0.34297   1.000
    O296    O    0.73517   0.15279   0.36557   1.000
    O297    O    0.30940   0.63277   0.34404   1.000
    O298    O    0.22294   0.63495   0.36507   1.000
    O299    O    0.72322   0.99633   0.36593   1.000
    O300    O    0.37948   0.62364   0.36796   1.000
    O301    O    0.71830   0.72848   0.36337   1.000
    O302    O    0.41190   0.33245   0.36553   1.000
    O303    O    0.49177   0.31853   0.36841   1.000
    O304    O    0.64859   0.64190   0.36597   1.000
    O305    O    0.17013   0.36015   0.39284   1.000
    O306    O    0.80198   0.65969   0.36978   1.000
    O307    O    0.73321   0.57502   0.37267   1.000
    O308    O    0.72326   0.66565   0.41864   1.000
    O309    O    0.35453   0.32580   0.40739   1.000
    O310    O    0.13806   0.63721   0.38547   1.000
    O311    O    0.06069   0.63960   0.40013   1.000
    O312    O    0.74020   0.23633   0.38756   1.000
    O313    O    0.74490   0.31263   0.40371   1.000
    O314    O    0.20566   0.62704   0.41030   1.000
    O315    O    0.73401   0.16703   0.41133   1.000
    O316    O    0.11726   0.35308   0.43414   1.000
    O317    O    0.20194   0.33617   0.44048   1.000
    O318    O    0.29513   0.31877   0.44778   1.000
    O319    O    0.37986   0.30423   0.45496   1.000
    O320    O    0.61796   0.52249   0.46315   1.000
    O321    O    0.78956   0.78392   0.46204   1.000
    O322    O    0.23428   0.30955   0.48711   1.000
    O323    O    0.74783   0.71977   0.47092   1.000
    O324    O    0.70073   0.64742   0.48292   1.000
    O325    O    0.77933   0.77472   0.50813   1.000
    O326    O    0.65084   0.57309   0.49456   1.000
    O327    O    0.60176   0.49798   0.50621   1.000
    O328    O    0.16441   0.18163   0.51208   1.000
    O329    O    0.68524   0.62704   0.53316   1.000
    O330    O    0.31134   0.47049   0.52835   1.000
    O331    O    0.55907   0.43291   0.51978   1.000
    O332    O    0.19981   0.25199   0.52304   1.000
    O333    O    0.23891   0.33108   0.53870   1.000
    O334    O    0.58806   0.47540   0.55604   1.000
    O335    O    0.16461   0.19436   0.55813   1.000
    O336    O    0.80602   0.82302   0.54245   1.000
    O337    O    0.76507   0.75763   0.55798   1.000
    O338    O    0.27851   0.41205   0.55550   1.000
    O339    O    0.31795   0.48875   0.57300   1.000
    O340    O    0.24340   0.35126   0.58985   1.000
    O341    O    0.71808   0.68232   0.57101   1.000
    O342    O    0.67023   0.60322   0.58329   1.000
    O343    O    0.74929   0.73633   0.60147   1.000
    O344    O    0.62215   0.52669   0.59452   1.000
    O345    O    0.57909   0.45899   0.60142   1.000
    O346    O    0.13421   0.14609   0.59155   1.000
    O347    O    0.16781   0.21341   0.60898   1.000
    O348    O    0.35301   0.55423   0.59278   1.000
    O349    O    0.32226   0.50203   0.62379   1.000
    O350    O    0.65732   0.57745   0.63362   1.000
    O351    O    0.20749   0.29122   0.62503   1.000
    O352    O    0.24835   0.36804   0.64120   1.000
    O353    O    0.17428   0.23523   0.65332   1.000
    O354    O    0.28777   0.44210   0.65764   1.000
    O355    O    0.32407   0.50781   0.67021   1.000
    O356    O    0.79828   0.55328   0.66846   1.000
    O357    O    0.25861   0.38171   0.70690   1.000
    O358    O    0.71537   0.57753   0.67421   1.000
    O359    O    0.62357   0.60131   0.68059   1.000
    O360    O    0.54012   0.62366   0.68631   1.000
    O361    O    0.77409   0.58030   0.71516   1.000
    O362    O    0.26060   0.87879   0.71484   1.000
    O363    O    0.73603   0.33880   0.71576   1.000
    O364    O    0.59153   0.62299   0.72841   1.000
    O365    O    0.27129   0.02450   0.72257   1.000
    O366    O    0.59081   0.35230   0.72594   1.000
    O367    O    0.26627   0.94820   0.73866   1.000
    O368    O    0.26091   0.86471   0.76060   1.000
    O369    O    0.90900   0.33534   0.75787   1.000
    O370    O    0.66825   0.34912   0.74055   1.000
    O371    O    0.75290   0.34604   0.76102   1.000
    O372    O    0.24836   0.70831   0.76025   1.000
    O373    O    0.91124   0.57305   0.75377   1.000
    O374    O    0.27278   0.02289   0.76885   1.000
    O375    O    0.59565   0.36087   0.77176   1.000
    O376    O    0.83170   0.58803   0.75679   1.000
    O377    O    0.74194   0.60570   0.76354   1.000
    O378    O    0.26429   0.28712   0.75285   1.000
    O379    O    0.33172   0.37362   0.75554   1.000
    O380    O    0.17806   0.35337   0.75921   1.000
    O381    O    0.24490   0.44021   0.76245   1.000
    O382    O    0.27748   0.18437   0.77856   1.000
    O383    O    0.65118   0.62461   0.77041   1.000
    O384    O    0.56168   0.64231   0.77757   1.000
    O385    O    0.43576   0.37825   0.78354   1.000
    O386    O    0.88956   0.59398   0.79700   1.000
    O387    O    0.08534   0.34070   0.79361   1.000
    O388    O    0.24167   0.53434   0.79953   1.000
    O389    O    0.48401   0.65867   0.78689   1.000
    O390    O    0.83916   0.34388   0.78204   1.000
    O391    O    0.92384   0.34229   0.80275   1.000
    O392    O    0.25509   0.77968   0.78322   1.000
    O393    O    0.25037   0.69627   0.80555   1.000
    O394    O    0.71005   0.62863   0.81107   1.000
    O395    O    0.76490   0.35533   0.81308   1.000
    O396    O    0.26270   0.85598   0.81309   1.000
    O397    O    0.53070   0.66313   0.82486   1.000
    O398    O    0.27774   0.10243   0.79908   1.000
    O399    O    0.27482   0.01570   0.82067   1.000
    O400    O    0.51814   0.37073   0.80291   1.000
    O401    O    0.60602   0.36968   0.82318   1.000
    O402    O    0.28384   0.17741   0.82693   1.000
    O403    O    0.44439   0.37137   0.83182   1.000
    O404    O    0.01180   0.34202   0.82280   1.000
    O405    O    0.09425   0.33629   0.84204   1.000
    O406    O    0.24856   0.60953   0.82721   1.000
    O407    O    0.25251   0.52776   0.84761   1.000
    O408    O    0.93667   0.60089   0.83500   1.000
    O409    O    0.85894   0.61679   0.84419   1.000
    O410    O    0.93445   0.35148   0.85419   1.000
    O411    O    0.25296   0.68904   0.85740   1.000
    O412    O    0.76918   0.63377   0.85151   1.000
    O413    O    0.67798   0.65071   0.85876   1.000
    O414    O    0.27011   0.93229   0.84296   1.000
    O415    O    0.26484   0.84722   0.86553   1.000
    O416    O    0.69062   0.36723   0.84403   1.000
    O417    O    0.77708   0.36505   0.86506   1.000
    O418    O    0.27680   0.00368   0.86592   1.000
    O419    O    0.62053   0.37635   0.86805   1.000
    O420    O    0.28172   0.27151   0.86336   1.000
    O421    O    0.58812   0.66751   0.86539   1.000
    O422    O    0.50825   0.68142   0.86828   1.000
    O423    O    0.35143   0.35809   0.86596   1.000
    O424    O    0.82989   0.63981   0.89286   1.000
    O425    O    0.19803   0.34030   0.86978   1.000
    O426    O    0.26681   0.42498   0.87266   1.000
    O427    O    0.27674   0.33435   0.91863   1.000
    O428    O    0.64550   0.67416   0.90755   1.000
    O429    O    0.86196   0.36279   0.88546   1.000
    O430    O    0.93932   0.36040   0.90012   1.000
    O431    O    0.25982   0.76369   0.88752   1.000
    O432    O    0.25512   0.68740   0.90370   1.000
    O433    O    0.79435   0.37296   0.91029   1.000
    O434    O    0.26600   0.83301   0.91129   1.000
    O435    O    0.88276   0.64689   0.93416   1.000
    O436    O    0.79809   0.66379   0.94050   1.000
    O437    O    0.70490   0.68119   0.94794   1.000
    O438    O    0.62016   0.69573   0.95512   1.000
    O439    O    0.38205   0.47749   0.96311   1.000
    O440    O    0.21042   0.21609   0.96201   1.000
    O441    O    0.25215   0.28023   0.97090   1.000
    O442    O    0.26471   0.35594   0.81250   1.000
    O443    O    0.73531   0.64404   0.31251   1.000
loop_
    _geom_bond_atom_site_label_1
    _geom_bond_atom_site_label_2
    _geom_bond_distance
    _geom_bond_site_symmetry_2
    _ccdc_geom_bond_type
    C88    O204      0.75418      .   S
    C87    O204      0.75418      .   S
    C88    O205      0.66233  1_554   S
    C172   O205      0.66233      .   S
    C88    O206      0.69822  1_554   S
    C89    O206      0.69822      .   S
    C57    O207      0.54471      .   S
    C169   O207      0.54471      .   S
    C20    O208      0.54530      .   S
    C90    O208      0.54530      .   S
    C163   O209      0.68825      .   S
    C164   O209      0.68825      .   S
    C163   O210      0.71013      .   S
    C168   O210      0.71013      .   S
    C163   O211      0.72213  1_554   S
    C178   O211      0.72213      .   S
    C90    O212      0.70678      .   S
    C91    O212      0.70678      .   S
    C90    O213      0.68959      .   S
    C89    O213      0.68959  1_556   S
    C164   O214      0.70600      .   S
    C165   O214      0.70600      .   S
    C164   O215      0.54442      .   S
    C54    O215      0.54442  1_556   S
    C85    O216      0.54443      .   S
    C17    O216      0.54443      .   S
    C85    O217      0.68837      .   S
    C86    O217      0.68837      .   S
    C85    O218      0.70337      .   S
    C84    O218      0.70337  1_556   S
    C169   O219      0.70743      .   S
    C168   O219      0.70743      .   S
    C169   O220      0.68762      .   S
    C170   O220      0.68762      .   S
    C168   O221      0.71703      .   S
    C167   O221      0.71703      .   S
    C87    O222      0.70700      .   S
    C86    O222      0.70700      .   S
    C87    O223      0.71142      .   S
    C92    O223      0.71142      .   S
    C86    O224      0.54472      .   S
    C18    O224      0.54472      .   S
    C91    O225      0.68790      .   S
    C92    O225      0.68790      .   S
    C91    O226      0.54438      .   S
    C21    O226      0.54438      .   S
    C165   O227      0.54494      .   S
    C55    O227      0.54494      .   S
    C165   O228      0.68935      .   S
    C166   O228      0.68935      .   S
    C58    O229      0.54393      .   S
    C170   O229      0.54393      .   S
    C170   O230      0.70384      .   S
    C171   O230      0.70384      .   S
    C92    O231      0.72152      .   S
    C173   O231      0.72152      .   S
    C167   O232      0.70741      .   S
    C166   O232      0.70741      .   S
    C167   O233      0.68783      .   S
    C179   O233      0.68783      .   S
    C166   O234      0.54424      .   S
    C56    O234      0.54424      .   S
    C171   O235      0.66603      .   S
    C179   O235      0.66603      .   S
    C171   O236      0.54400      .   S
    C59    O236      0.54400      .   S
    C188   O237      0.61262      .   S
    C94    O237      0.61262      .   S
    C179   O238      1.04145      .   S
    C2     O238      1.04145      .   S
    C173   O239      0.71174      .   S
    C94    O239      0.71174      .   S
    C173   O240      0.70728      .   S
    C93    O240      0.70728      .   S
    C189   O241      0.61440      .   S
    C93    O241      0.61440      .   S
    C94    O242      0.73772      .   S
    C95    O242      0.73772      .   S
    C39    O243      0.54583      .   S
    C133   O243      0.54583      .   S
    C33    O244      0.54566      .   S
    C121   O244      0.54566      .   S
    C93    O245      0.74033      .   S
    C101   O245      0.74033      .   S
    C40    O246      0.54469      .   S
    C134   O246      0.54469      .   S
    C34    O247      0.54432      .   S
    C122   O247      0.54432      .   S
    C133   O248      0.68805      .   S
    C134   O248      0.68805  1_565   S
    C133   O249      0.71091      .   S
    C132   O249      0.71091      .   S
    C37    O250      0.54515      .   S
    C126   O250      0.54515      .   S
    C121   O251      0.68800      .   S
    C122   O251      0.68800      .   S
    C121   O252      0.71050      .   S
    C120   O252      0.71050      .   S
    C43    O253      0.54526      .   S
    C138   O253      0.54526      .   S
    C22    O254      0.54448      .   S
    C96    O254      0.54448      .   S
    C134   O255      0.71051      .   S
    C129   O255      0.71051      .   S
    C122   O256      0.70963      .   S
    C117   O256      0.70963      .   S
    C95    O257      0.69581      .   S
    C96    O257      0.69581      .   S
    C95    O258      0.70767      .   S
    C100   O258      0.70767      .   S
    C2     O259      1.03485      .   S
    C197   O259      1.03485      .   S
    C2     O260      1.04266      .   S
    C193   O260      1.04266      .   S
    C2     O261      1.02758      .   S
    C199   O261      1.02758      .   S
    C2     O262      1.04444      .   S
    C195   O262      1.04444      .   S
    C197   O263      0.63799      .   S
    C128   O263      0.63799      .   S
    C101   O264      0.70848      .   S
    C100   O264      0.70848      .   S
    C101   O265      0.69510      .   S
    C102   O265      0.69510      .   S
    C193   O266      0.63610      .   S
    C116   O266      0.63610      .   S
    C96    O267      0.70085      .   S
    C97    O267      0.70085      .   S
    C199   O268      0.63789      .   S
    C139   O268      0.63789      .   S
    C195   O269      0.63657      .   S
    C127   O269      0.63657      .   S
    C24    O270      0.54395      .   S
    C102   O270      0.54395      .   S
    C126   O271      0.70653      .   S
    C120   O271      0.70653      .   S
    C126   O272      0.69239      .   S
    C125   O272      0.69239      .   S
    C138   O273      0.70739      .   S
    C132   O273      0.70739      .   S
    C138   O274      0.69267      .   S
    C137   O274      0.69267      .   S
    C100   O275      0.71282      .   S
    C99    O275      0.71282      .   S
    C120   O276      0.71899      .   S
    C119   O276      0.71899      .   S
    C132   O277      0.71887      .   S
    C131   O277      0.71887      .   S
    C102   O278      0.70138      .   S
    C103   O278      0.70138      .   S
    C129   O279      0.75083      .   S
    C128   O279      0.75083      .   S
    C129   O280      0.69224      .   S
    C130   O280      0.69224  1_545   S
    C117   O281      0.74994      .   S
    C116   O281      0.74994      .   S
    C117   O282      0.69221      .   S
    C118   O282      0.69221      .   S
    C128   O283      0.63671      .   S
    C196   O283      0.63671      .   S
    C116   O284      0.63735      .   S
    C192   O284      0.63735      .   S
    C139   O285      0.74998      .   S
    C125   O285      0.74998  1_455   S
    C139   O286      0.63623      .   S
    C198   O286      0.63623      .   S
    C127   O287      0.75066      .   S
    C137   O287      0.75066      .   S
    C127   O288      0.63649      .   S
    C194   O288      0.63649      .   S
    C97    O289      0.54452      .   S
    C23    O289      0.54452      .   S
    C97    O290      0.69540      .   S
    C98    O290      0.69540      .   S
    C125   O291      0.71005      .   S
    C124   O291      0.71005      .   S
    C137   O292      0.71066      .   S
    C136   O292      0.71066      .   S
    C99    O293      0.70849      .   S
    C98    O293      0.70849      .   S
    C99    O294      0.70880      .   S
    C104   O294      0.70880      .   S
    C131   O295      0.70729      .   S
    C130   O295      0.70729      .   S
    C131   O296      0.71085      .   S
    C135   O296      0.71085      .   S
    C119   O297      0.70701      .   S
    C118   O297      0.70701      .   S
    C119   O298      0.71074      .   S
    C123   O298      0.71074      .   S
    C130   O299      0.54508  1_545   S
    C38    O299      0.54508      .   S
    C118   O300      0.54321      .   S
    C32    O300      0.54321      .   S
    C196   O301      1.03788      .   S
    C3     O301      1.03788      .   S
    C103   O302      0.69587      .   S
    C104   O302      0.69587      .   S
    C103   O303      0.54451      .   S
    C25    O303      0.54451      .   S
    C192   O304      1.02676      .   S
    C3     O304      1.02676      .   S
    C98    O305      0.73869      .   S
    C106   O305      0.73869      .   S
    C198   O306      1.03502      .   S
    C3     O306      1.03502      .   S
    C194   O307      1.03417      .   S
    C3     O307      1.03417      .   S
    C3     O308      1.04101      .   S
    C176   O308      1.04101      .   S
    C104   O309      0.73654      .   S
    C105   O309      0.73654      .   S
    C124   O310      0.68801      .   S
    C123   O310      0.68801      .   S
    C124   O311      0.54430      .   S
    C36    O311      0.54430      .   S
    C136   O312      0.68812      .   S
    C135   O312      0.68812      .   S
    C136   O313      0.54453      .   S
    C42    O313      0.54453      .   S
    C123   O314      0.54603      .   S
    C35    O314      0.54603      .   S
    C135   O315      0.54577      .   S
    C41    O315      0.54577      .   S
    C106   O316      0.61189      .   S
    C190   O316      0.61189      .   S
    C106   O317      0.71288      .   S
    C174   O317      0.71288      .   S
    C105   O318      0.70850      .   S
    C174   O318      0.70850      .   S
    C105   O319      0.61678      .   S
    C191   O319      0.61678      .   S
    C47    O320      0.54381      .   S
    C145   O320      0.54381      .   S
    C44    O321      0.54511      .   S
    C140   O321      0.54511      .   S
    C174   O322      0.72203      .   S
    C107   O322      0.72203      .   S
    C176   O323      0.66585      .   S
    C140   O323      0.66585      .   S
    C176   O324      0.68748      .   S
    C144   O324      0.68748      .   S
    C140   O325      0.70323      .   S
    C141   O325      0.70323      .   S
    C145   O326      0.70791      .   S
    C144   O326      0.70791      .   S
    C145   O327      0.68960      .   S
    C146   O327      0.68960      .   S
    C26    O328      0.54467      .   S
    C108   O328      0.54467      .   S
    C144   O329      0.71798      .   S
    C143   O329      0.71798      .   S
    C29    O330      0.54464      .   S
    C113   O330      0.54464      .   S
    C48    O331      0.54511      .   S
    C146   O331      0.54511      .   S
    C107   O332      0.68833      .   S
    C108   O332      0.68833      .   S
    C107   O333      0.71004      .   S
    C112   O333      0.71004      .   S
    C146   O334      0.70652      .   S
    C147   O334      0.70652      .   S
    C108   O335      0.70559      .   S
    C109   O335      0.70559      .   S
    C141   O336      0.54442      .   S
    C45    O336      0.54442      .   S
    C141   O337      0.68835      .   S
    C142   O337      0.68835      .   S
    C113   O338      0.70744      .   S
    C112   O338      0.70744      .   S
    C113   O339      0.68773      .   S
    C114   O339      0.68773      .   S
    C112   O340      0.71707      .   S
    C111   O340      0.71707      .   S
    C143   O341      0.70692      .   S
    C142   O341      0.70692      .   S
    C143   O342      0.71125      .   S
    C148   O342      0.71125      .   S
    C142   O343      0.54469      .   S
    C46    O343      0.54469      .   S
    C147   O344      0.68790      .   S
    C148   O344      0.68790      .   S
    C147   O345      0.54435      .   S
    C49    O345      0.54435      .   S
    C109   O346      0.54494      .   S
    C27    O346      0.54494      .   S
    C109   O347      0.68936      .   S
    C110   O347      0.68936      .   S
    C30    O348      0.54394      .   S
    C114   O348      0.54394      .   S
    C114   O349      0.70377      .   S
    C115   O349      0.70377      .   S
    C148   O350      0.72150      .   S
    C177   O350      0.72150      .   S
    C111   O351      0.70742      .   S
    C110   O351      0.70742      .   S
    C111   O352      0.68785      .   S
    C175   O352      0.68785      .   S
    C110   O353      0.54427      .   S
    C28    O353      0.54427      .   S
    C115   O354      0.66603      .   S
    C175   O354      0.66603      .   S
    C115   O355      0.54395      .   S
    C31    O355      0.54395      .   S
    C200   O356      0.61266      .   S
    C150   O356      0.61266      .   S
    C175   O357      1.04148      .   S
    C0     O357      1.04148      .   S
    C177   O358      0.71179      .   S
    C150   O358      0.71179      .   S
    C177   O359      0.70731      .   S
    C149   O359      0.70731      .   S
    C201   O360      0.61431      .   S
    C149   O360      0.61431      .   S
    C150   O361      0.73756      .   S
    C151   O361      0.73756      .   S
    C11    O362      0.54584      .   S
    C77    O362      0.54584      .   S
    C5     O363      0.54565      .   S
    C65    O363      0.54565      .   S
    C149   O364      0.74041      .   S
    C157   O364      0.74041      .   S
    C12    O365      0.54449      .   S
    C78    O365      0.54449  1_565   S
    C6     O366      0.54432      .   S
    C66    O366      0.54432      .   S
    C77    O367      0.68806      .   S
    C78    O367      0.68806      .   S
    C77    O368      0.71089      .   S
    C76    O368      0.71089      .   S
    C9     O369      0.54514      .   S
    C70    O369      0.54514      .   S
    C65    O370      0.68800      .   S
    C66    O370      0.68800      .   S
    C65    O371      0.71051      .   S
    C64    O371      0.71051      .   S
    C15    O372      0.54516      .   S
    C82    O372      0.54516      .   S
    C50    O373      0.54416      .   S
    C152   O373      0.54416      .   S
    C78    O374      0.71053  1_565   S
    C73    O374      0.71053      .   S
    C66    O375      0.70962      .   S
    C61    O375      0.70962      .   S
    C151   O376      0.69565      .   S
    C152   O376      0.69565      .   S
    C151   O377      0.70770      .   S
    C156   O377      0.70770      .   S
    C0     O378      1.03494      .   S
    C185   O378      1.03494      .   S
    C0     O379      1.04265      .   S
    C181   O379      1.04265      .   S
    C0     O380      1.02758      .   S
    C187   O380      1.02758      .   S
    C0     O381      1.04439      .   S
    C183   O381      1.04439      .   S
    C185   O382      0.63762      .   S
    C72    O382      0.63762      .   S
    C157   O383      0.70846      .   S
    C156   O383      0.70846      .   S
    C157   O384      0.69505      .   S
    C158   O384      0.69505      .   S
    C181   O385      0.63612      .   S
    C60    O385      0.63612      .   S
    C152   O386      0.70138      .   S
    C153   O386      0.70138      .   S
    C187   O387      0.63789      .   S
    C83    O387      0.63789      .   S
    C183   O388      0.63665      .   S
    C71    O388      0.63665      .   S
    C52    O389      0.54392      .   S
    C158   O389      0.54392      .   S
    C70    O390      0.70652      .   S
    C64    O390      0.70652      .   S
    C70    O391      0.69239      .   S
    C69    O391      0.69239      .   S
    C82    O392      0.70740      .   S
    C76    O392      0.70740      .   S
    C82    O393      0.69275      .   S
    C81    O393      0.69275      .   S
    C156   O394      0.71279      .   S
    C155   O394      0.71279      .   S
    C64    O395      0.71898      .   S
    C63    O395      0.71898      .   S
    C76    O396      0.71889      .   S
    C75    O396      0.71889      .   S
    C158   O397      0.69806      .   S
    C159   O397      0.69806      .   S
    C73    O398      0.75083      .   S
    C72    O398      0.75083      .   S
    C73    O399      0.69222      .   S
    C74    O399      0.69222  1_565   S
    C61    O400      0.74994      .   S
    C60    O400      0.74994      .   S
    C61    O401      0.69220      .   S
    C62    O401      0.69220      .   S
    C72    O402      0.63669      .   S
    C184   O402      0.63669      .   S
    C60    O403      0.63735      .   S
    C180   O403      0.63735      .   S
    C83    O404      0.74998      .   S
    C69    O404      0.74998  1_655   S
    C83    O405      0.63624      .   S
    C186   O405      0.63624      .   S
    C71    O406      0.75067      .   S
    C81    O406      0.75067      .   S
    C71    O407      0.63642      .   S
    C182   O407      0.63642      .   S
    C153   O408      0.54449      .   S
    C51    O408      0.54449      .   S
    C153   O409      0.69536      .   S
    C154   O409      0.69536      .   S
    C69    O410      0.71005      .   S
    C68    O410      0.71005      .   S
    C81    O411      0.71068      .   S
    C80    O411      0.71068      .   S
    C155   O412      0.70851      .   S
    C154   O412      0.70851      .   S
    C155   O413      0.70882      .   S
    C160   O413      0.70882      .   S
    C75    O414      0.70730      .   S
    C74    O414      0.70730      .   S
    C75    O415      0.71018      .   S
    C79    O415      0.71018      .   S
    C63    O416      0.70701      .   S
    C62    O416      0.70701      .   S
    C63    O417      0.71073      .   S
    C67    O417      0.71073      .   S
    C74    O418      0.54509  1_565   S
    C10    O418      0.54509      .   S
    C62    O419      0.54531      .   S
    C4     O419      0.54531      .   S
    C184   O420      1.03783      .   S
    C1     O420      1.03783      .   S
    C159   O421      0.69716      .   S
    C160   O421      0.69716      .   S
    C159   O422      0.54660      .   S
    C53    O422      0.54660      .   S
    C180   O423      1.02677      .   S
    C1     O423      1.02677      .   S
    C154   O424      0.73912      .   S
    C162   O424      0.73912      .   S
    C186   O425      1.03503      .   S
    C1     O425      1.03503      .   S
    C182   O426      1.03421      .   S
    C1     O426      1.03421      .   S
    C1     O427      1.04104      .   S
    C172   O427      1.04104      .   S
    C160   O428      0.73992      .   S
    C161   O428      0.73992      .   S
    C68    O429      0.68801      .   S
    C67    O429      0.68801      .   S
    C68    O430      0.54430      .   S
    C8     O430      0.54430      .   S
    C80    O431      0.68805      .   S
    C79    O431      0.68805      .   S
    C80    O432      0.54442      .   S
    C14    O432      0.54442      .   S
    C67    O433      0.54602      .   S
    C7     O433      0.54602      .   S
    C79    O434      0.54652      .   S
    C13    O434      0.54652      .   S
    C162   O435      0.61173      .   S
    C202   O435      0.61173      .   S
    C162   O436      0.71262      .   S
    C178   O436      0.71262      .   S
    C161   O437      0.70739      .   S
    C178   O437      0.70739      .   S
    C161   O438      0.61458      .   S
    C203   O438      0.61458      .   S
    C19    O439      0.54463      .   S
    C89    O439      0.54463      .   S
    C16    O440      0.54514      .   S
    C84    O440      0.54514      .   S
    C172   O441      0.66582      .   S
    C84    O441      0.66582      .   S
    C0     O442      1.46196      .   S
    C1     O442      1.46196      .   S
    C2     O443      1.46194      .   S
    C3     O443      1.46194      .   S
