# CIF file generated by openbabel 2.4.90, see http://openbabel.sf.net
data_I
_chemical_name_common ''
_cell_length_a 18.464
_cell_length_b 18.456
_cell_length_c 18.454
_cell_angle_alpha 59.998
_cell_angle_beta 60.026
_cell_angle_gamma 60.029
_space_group_name_H-M_alt 'P 1'
_space_group_name_Hall 'P 1'
loop_
    _symmetry_equiv_pos_as_xyz
    x,y,z
loop_
    _atom_site_label
    _atom_site_type_symbol
    _atom_site_fract_x
    _atom_site_fract_y
    _atom_site_fract_z
    _atom_site_occupancy
    Zr0     Zr   0.61152   0.78534   0.61152   1.000
    Zr1     Zr   0.19851   0.02433   0.19855   1.000
    Zr2     Zr   0.61150   0.61151   0.78537   1.000
    Zr3     Zr   0.19852   0.19854   0.02431   1.000
    Zr4     Zr   0.78520   0.61154   0.61154   1.000
    Zr5     Zr   0.02451   0.19854   0.19855   1.000
    Zr6     Zr   0.61143   0.61127   0.61126   1.000
    Zr7     Zr   0.19855   0.19861   0.19862   1.000
    Zr8     Zr   0.21474   0.38847   0.38840   1.000
    Zr9     Zr   0.97543   0.80147   0.80146   1.000
    Zr10    Zr   0.38844   0.38850   0.21464   1.000
    Zr11    Zr   0.80142   0.80147   0.97571   1.000
    Zr12    Zr   0.38842   0.21467   0.38850   1.000
    Zr13    Zr   0.80143   0.97567   0.80147   1.000
    Zr14    Zr   0.38851   0.38874   0.38876   1.000
    Zr15    Zr   0.80140   0.80140   0.80140   1.000
    N16     N    0.09497   0.59310   0.09497   1.000
    O17     O    0.04723   0.67866   0.97290   1.000
    O18     O    0.21704   0.50886   0.14274   1.000
    O19     O    0.97289   0.67873   0.04734   1.000
    O20     O    0.14280   0.50888   0.21703   1.000
    N21     N    0.59498   0.59499   0.09474   1.000
    O22     O    0.51008   0.51011   0.14251   1.000
    O23     O    0.51006   0.51021   0.21692   1.000
    O24     O    0.67984   0.67983   0.97274   1.000
    O25     O    0.67989   0.67982   0.04718   1.000
    N26     N    0.90498   0.90502   0.40691   1.000
    O27     O    0.02705   0.95267   0.32130   1.000
    O28     O    0.95272   0.02709   0.32135   1.000
    O29     O    0.78291   0.85724   0.49115   1.000
    O30     O    0.85715   0.78295   0.49114   1.000
    N31     N    0.40496   0.40502   0.90528   1.000
    O32     O    0.32005   0.32019   0.95284   1.000
    O33     O    0.48989   0.48980   0.78310   1.000
    O34     O    0.32011   0.32018   0.02728   1.000
    O35     O    0.48987   0.48990   0.85750   1.000
    N36     N    0.59306   0.09501   0.09499   1.000
    O37     O    0.50882   0.14278   0.21708   1.000
    O38     O    0.50883   0.21709   0.14276   1.000
    O39     O    0.67864   0.04735   0.97291   1.000
    O40     O    0.67864   0.97293   0.04735   1.000
    N41     N    0.40496   0.90528   0.40503   1.000
    O42     O    0.32005   0.95285   0.32019   1.000
    O43     O    0.48989   0.78310   0.48979   1.000
    O44     O    0.32011   0.02728   0.32019   1.000
    O45     O    0.48987   0.85749   0.48991   1.000
    N46     N    0.40688   0.90500   0.90500   1.000
    O47     O    0.32130   0.02708   0.95258   1.000
    O48     O    0.49112   0.85722   0.78293   1.000
    O49     O    0.32130   0.95265   0.02708   1.000
    O50     O    0.49111   0.78292   0.85725   1.000
    N51     N    0.09455   0.59502   0.59502   1.000
    O52     O    0.14243   0.51011   0.51010   1.000
    O53     O    0.21671   0.51020   0.51020   1.000
    O54     O    0.97260   0.67985   0.67984   1.000
    O55     O    0.04695   0.67989   0.67988   1.000
    N56     N    0.90497   0.40690   0.90504   1.000
    O57     O    0.95271   0.32134   0.02710   1.000
    O58     O    0.02705   0.32128   0.95267   1.000
    O59     O    0.85714   0.49113   0.78296   1.000
    O60     O    0.78290   0.49114   0.85727   1.000
    N61     N    0.90539   0.40499   0.40500   1.000
    O62     O    0.78323   0.48980   0.48980   1.000
    O63     O    0.02735   0.32016   0.32017   1.000
    O64     O    0.85751   0.48990   0.48990   1.000
    O65     O    0.95299   0.32011   0.32014   1.000
    N66     N    0.09496   0.09498   0.59310   1.000
    O67     O    0.14279   0.21706   0.50886   1.000
    O68     O    0.21703   0.14276   0.50887   1.000
    O69     O    0.97289   0.04734   0.67872   1.000
    O70     O    0.04722   0.97292   0.67867   1.000
    N71     N    0.59498   0.09473   0.59499   1.000
    O72     O    0.51005   0.21690   0.51023   1.000
    O73     O    0.51007   0.14252   0.51011   1.000
    O74     O    0.67983   0.97273   0.67983   1.000
    O75     O    0.67989   0.04716   0.67983   1.000
    N76     N    0.65482   0.65485   0.65486   1.000
    O77     O    0.64399   0.64401   0.68749   1.000
    O78     O    0.64397   0.64395   0.64396   1.000
    O79     O    0.68741   0.64402   0.64403   1.000
    O80     O    0.64399   0.68747   0.64402   1.000
    N81     N    0.15507   0.15500   0.15500   1.000
    O82     O    0.16593   0.16589   0.12233   1.000
    O83     O    0.16593   0.12233   0.16589   1.000
    O84     O    0.12243   0.16589   0.16589   1.000
    O85     O    0.16594   0.16590   0.16590   1.000
    N86     N    0.84487   0.84500   0.84502   1.000
    O87     O    0.83401   0.87767   0.83413   1.000
    O88     O    0.83401   0.83412   0.87769   1.000
    O89     O    0.83400   0.83410   0.83411   1.000
    O90     O    0.87751   0.83412   0.83413   1.000
    N91     N    0.34513   0.34516   0.34515   1.000
    O92     O    0.35595   0.31254   0.35599   1.000
    O93     O    0.31253   0.35599   0.35596   1.000
    O94     O    0.35596   0.35599   0.31252   1.000
    O95     O    0.35597   0.35605   0.35605   1.000
loop_
    _geom_bond_atom_site_label_1
    _geom_bond_atom_site_label_2
    _geom_bond_distance
    _geom_bond_site_symmetry_2
    _ccdc_geom_bond_type
    N16    O17       2.31973  1_554   S
    Zr9    O17       3.30470  1_655   S
    N16    O18       2.32128      .   S
    Zr10   O18       3.30673      .   S
    N16    O19       2.31997  1_455   S
    Zr11   O19       3.30511  1_556   S
    N16    O20       2.32050      .   S
    Zr8    O20       3.30514      .   S
    N21    O22       2.31962      .   S
    Zr10   O22       3.30377      .   S
    N21    O23       2.31976      .   S
    Zr14   O23       3.30521      .   S
    N21    O24       2.31864  1_554   S
    Zr15   O24       3.30384      .   S
    N21    O25       2.32008      .   S
    Zr11   O25       3.30618  1_556   S
    N26    O27       2.32002  1_655   S
    Zr1    O27       3.30522  1_545   S
    N26    O28       2.31976  1_565   S
    Zr5    O28       3.30498  1_455   S
    N26    O29       2.32123      .   S
    Zr0    O29       3.30667      .   S
    N26    O30       2.32078      .   S
    Zr4    O30       3.30603      .   S
    N31    O32       2.32006      .   S
    Zr3    O32       3.30617  1_554   S
    N31    O33       2.31975      .   S
    Zr6    O33       3.30521      .   S
    N31    O34       2.31864  1_556   S
    Zr7    O34       3.30384      .   S
    N31    O35       2.31961      .   S
    Zr2    O35       3.30374      .   S
    N36    O37       2.32110      .   S
    Zr12   O37       3.30651      .   S
    N36    O38       2.32112      .   S
    Zr10   O38       3.30650      .   S
    N36    O39       2.31987  1_554   S
    Zr13   O39       3.30476  1_565   S
    N36    O40       2.31988  1_545   S
    Zr11   O40       3.30495  1_556   S
    N41    O42       2.31998      .   S
    Zr1    O42       3.30592  1_545   S
    N41    O43       2.31978      .   S
    Zr6    O43       3.30525      .   S
    N41    O44       2.31869  1_565   S
    Zr7    O44       3.30388      .   S
    N41    O45       2.31957      .   S
    Zr0    O45       3.30367      .   S
    N46    O47       2.31929  1_565   S
    Zr3    O47       3.30583  1_554   S
    N46    O48       2.32088      .   S
    Zr0    O48       3.30629      .   S
    N46    O49       2.31993  1_556   S
    Zr1    O49       3.30513  1_545   S
    N46    O50       2.32101      .   S
    Zr2    O50       3.30645      .   S
    N51    O52       2.31962      .   S
    Zr8    O52       3.30418      .   S
    N51    O53       2.32012      .   S
    Zr14   O53       3.30541      .   S
    N51    O54       2.31916  1_455   S
    Zr15   O54       3.30441      .   S
    N51    O55       2.31972      .   S
    Zr9    O55       3.30553  1_655   S
    N56    O57       2.31966  1_556   S
    Zr5    O57       3.30486  1_455   S
    N56    O58       2.32005  1_655   S
    Zr3    O58       3.30520  1_554   S
    N56    O59       2.32067      .   S
    Zr4    O59       3.30592      .   S
    N56    O60       2.32122      .   S
    Zr2    O60       3.30671      .   S
    N61    O62       2.32000      .   S
    Zr6    O62       3.30560      .   S
    N61    O63       2.31913  1_655   S
    Zr7    O63       3.30438      .   S
    N61    O64       2.31937      .   S
    Zr4    O64       3.30333      .   S
    N61    O65       2.31971      .   S
    Zr5    O65       3.30558  1_455   S
    N66    O67       2.32079      .   S
    Zr8    O67       3.30602      .   S
    N66    O68       2.32123      .   S
    Zr12   O68       3.30667      .   S
    N66    O69       2.32001  1_455   S
    Zr13   O69       3.30520  1_565   S
    N66    O70       2.31976  1_545   S
    Zr9    O70       3.30497  1_655   S
    N71    O72       2.31976      .   S
    Zr14   O72       3.30526      .   S
    N71    O73       2.31955      .   S
    Zr12   O73       3.30367      .   S
    N71    O74       2.31869  1_545   S
    Zr15   O74       3.30391      .   S
    N71    O75       2.31997      .   S
    Zr13   O75       3.30596  1_565   S
    N76    O77       0.49167      .   S
    Zr2    O77       1.47502      .   S
    N76    O78       0.49187      .   S
    Zr6    O78       1.47560      .   S
    N76    O79       0.49162      .   S
    Zr4    O79       1.47487      .   S
    N76    O80       0.49167      .   S
    Zr0    O80       1.47500      .   S
    N81    O82       0.49235      .   S
    Zr3    O82       1.47705      .   S
    N81    O83       0.49235      .   S
    Zr1    O83       1.47704      .   S
    N81    O84       0.49230      .   S
    Zr5    O84       1.47689      .   S
    N81    O85       0.49238      .   S
    Zr7    O85       1.47713      .   S
    N86    O87       0.49235      .   S
    Zr13   O87       1.47704      .   S
    N86    O88       0.49235      .   S
    Zr11   O88       1.47705      .   S
    N86    O89       0.49236      .   S
    Zr15   O89       1.47709      .   S
    N86    O90       0.49230      .   S
    Zr9    O90       1.47689      .   S
    N91    O92       0.49167      .   S
    Zr12   O92       1.47500      .   S
    N91    O93       0.49162      .   S
    Zr8    O93       1.47487      .   S
    N91    O94       0.49167      .   S
    Zr10   O94       1.47502      .   S
    N91    O95       0.49190      .   S
    Zr14   O95       1.47571      .   S
