# CIF file generated by openbabel 2.4.90, see http://openbabel.sf.net
data_I
_chemical_name_common ''
_cell_length_a 10.7825
_cell_length_b 15.217
_cell_length_c 15.23
_cell_angle_alpha 117.713
_cell_angle_beta 107.007
_cell_angle_gamma 94.796
_space_group_name_H-M_alt 'P 1'
_space_group_name_Hall 'P 1'
loop_
    _symmetry_equiv_pos_as_xyz
    x,y,z
loop_
    _atom_site_label
    _atom_site_type_symbol
    _atom_site_fract_x
    _atom_site_fract_y
    _atom_site_fract_z
    _atom_site_occupancy
    Zr0     Zr   0.95042   0.52652   0.57296   1.000
    Zr1     Zr   0.90397   0.74420   0.61665   1.000
    Zr2     Zr   0.73330   0.75443   0.71539   1.000
    Zr3     Zr   0.64754   0.73889   0.51707   1.000
    Zr4     Zr   0.80839   0.90386   0.68784   1.000
    Zr5     Zr   0.05017   0.47369   0.42724   1.000
    Zr6     Zr   0.09680   0.25623   0.38375   1.000
    Zr7     Zr   0.26721   0.24535   0.28465   1.000
    Zr8     Zr   0.35301   0.26087   0.48290   1.000
    Zr9     Zr   0.19102   0.09611   0.31211   1.000
    O10     O    0.22912   0.17073   0.29838   1.000
    O11     O    0.18201   0.25079   0.33420   1.000
    O12     O    0.31011   0.25311   0.38377   1.000
    O13     O    0.14391   0.17617   0.34793   1.000
    O14     O    0.27201   0.17849   0.39751   1.000
    O15     O    0.22490   0.25855   0.43332   1.000
    O16     O    0.00029   0.50011   0.50010   1.000
    O17     O    0.77575   0.74155   0.56686   1.000
    O18     O    0.72796   0.82137   0.60246   1.000
    O19     O    0.69042   0.74666   0.61623   1.000
    O20     O    0.85618   0.82403   0.65225   1.000
    O21     O    0.81863   0.74932   0.66602   1.000
    O22     O    0.77084   0.82915   0.70162   1.000
    N23     N    0.00005   0.50001   0.00003   1.000
    O24     O    0.21860   0.39618   0.77592   1.000
    O25     O    0.08271   0.25913   0.13608   1.000
    O26     O    0.91715   0.74087   0.86395   1.000
    O27     O    0.78164   0.60375   0.22410   1.000
    N28     N    0.49997   0.49996   1.00000   1.000
    O29     O    0.25126   0.51296   0.81982   1.000
    O30     O    0.40030   0.38624   0.12159   1.000
    O31     O    0.59985   0.61362   0.87842   1.000
    O32     O    0.74883   0.48706   0.18023   1.000
    N33     N    0.15290   0.16271   0.50277   1.000
    O34     O    0.20292   0.18725   0.49780   1.000
    N35     N    0.01045   0.13559   0.16619   1.000
    O36     O    0.07464   0.16303   0.19581   1.000
    N37     N    0.70864   0.56876   0.53265   1.000
    O38     O    0.76909   0.55820   0.54273   1.000
    N39     N    0.54843   0.84954   0.66680   1.000
    O40     O    0.59465   0.82576   0.67895   1.000
    N41     N    0.12141   0.67544   0.58589   1.000
    O42     O    0.07866   0.63821   0.58266   1.000
    N43     N    0.84741   0.83741   0.49741   1.000
    O44     O    0.79744   0.81278   0.50233   1.000
    N45     N    0.87838   0.32457   0.41419   1.000
    O46     O    0.92133   0.36185   0.41745   1.000
    N47     N    0.45153   0.15000   0.33309   1.000
    O48     O    0.40545   0.17384   0.32098   1.000
    N49     N    0.29180   0.43130   0.46739   1.000
    O50     O    0.23139   0.44190   0.45736   1.000
    N51     N    0.98949   0.86439   0.83371   1.000
    O52     O    0.92544   0.83690   0.80413   1.000
loop_
    _geom_bond_atom_site_label_1
    _geom_bond_atom_site_label_2
    _geom_bond_distance
    _geom_bond_site_symmetry_2
    _ccdc_geom_bond_type
    Zr7    O10       1.30191      .   S
    Zr9    O10       1.30191      .   S
    Zr7    O11       1.33440      .   S
    Zr6    O11       1.33440      .   S
    Zr7    O12       1.38693      .   S
    Zr8    O12       1.38693      .   S
    Zr9    O13       1.29893      .   S
    Zr6    O13       1.29893      .   S
    Zr9    O14       1.28905      .   S
    Zr8    O14       1.28905      .   S
    Zr6    O15       1.35508      .   S
    Zr8    O15       1.35508      .   S
    Zr5    O16       1.28547      .   S
    Zr0    O16       1.28547  1_655   S
    Zr3    O17       1.35532      .   S
    Zr1    O17       1.35532      .   S
    Zr3    O18       1.28790      .   S
    Zr4    O18       1.28790      .   S
    Zr3    O19       1.38738      .   S
    Zr2    O19       1.38738      .   S
    Zr1    O20       1.30024      .   S
    Zr4    O20       1.30024      .   S
    Zr1    O21       1.33430      .   S
    Zr2    O21       1.33430      .   S
    Zr4    O22       1.30194      .   S
    Zr2    O22       1.30194      .   S
    N23    O24       4.47342  1_554   S
    Zr8    O24       4.68954      .   S
    N23    O25       5.00528      .   S
    Zr9    O25       4.42093      .   S
    N23    O26       5.00563  1_454   S
    Zr4    O26       4.42202      .   S
    N23    O27       4.47173  1_455   S
    Zr3    O27       4.68677      .   S
    N28    O29       3.32405      .   S
    Zr0    O29       4.28949  1_655   S
    N28    O30       3.37833  1_556   S
    Zr7    O30       4.39827      .   S
    N28    O31       3.37839      .   S
    Zr2    O31       4.39869      .   S
    N28    O32       3.32475  1_556   S
    Zr5    O32       4.29219  1_455   S
    N33    O34       0.67276      .   S
    Zr8    O34       2.01829      .   S
    N35    O36       0.67137      .   S
    Zr7    O36       2.01412      .   S
    N37    O38       0.67535      .   S
    Zr0    O38       2.02605      .   S
    N39    O40       0.67225      .   S
    Zr2    O40       2.01676      .   S
    N41    O42       0.67303      .   S
    Zr0    O42       2.01908  1_655   S
    N43    O44       0.67252      .   S
    Zr3    O44       2.01756      .   S
    N45    O46       0.67462      .   S
    Zr5    O46       2.02387  1_455   S
    N47    O48       0.67172      .   S
    Zr7    O48       2.01516      .   S
    N49    O50       0.67521      .   S
    Zr5    O50       2.02564      .   S
    N51    O52       0.67029      .   S
    Zr2    O52       2.01086      .   S
