# CIF file generated by openbabel 2.4.90, see http://openbabel.sf.net
data_I
_chemical_name_common ''
_cell_length_a 10.7825
_cell_length_b 15.217
_cell_length_c 15.23
_cell_angle_alpha 117.713
_cell_angle_beta 107.007
_cell_angle_gamma 94.796
_space_group_name_H-M_alt 'P 1'
_space_group_name_Hall 'P 1'
loop_
    _symmetry_equiv_pos_as_xyz
    x,y,z
loop_
    _atom_site_label
    _atom_site_type_symbol
    _atom_site_fract_x
    _atom_site_fract_y
    _atom_site_fract_z
    _atom_site_occupancy
    C0      C    0.95042   0.52652   0.57296   1.000
    C1      C    0.90397   0.74420   0.61665   1.000
    C2      C    0.73330   0.75443   0.71539   1.000
    C3      C    0.64754   0.73889   0.51707   1.000
    C4      C    0.80839   0.90386   0.68784   1.000
    C5      C    0.05017   0.47369   0.42724   1.000
    C6      C    0.09680   0.25623   0.38375   1.000
    C7      C    0.26721   0.24535   0.28465   1.000
    C8      C    0.35301   0.26087   0.48290   1.000
    C9      C    0.19102   0.09611   0.31211   1.000
    C10     C    0.12743   0.68451   0.79892   1.000
    C11     C    0.32674   0.68393   0.93191   1.000
    C12     C    0.18995   0.35205   0.75358   1.000
    C13     C    0.99890   0.36594   0.62700   1.000
    C14     C    0.26511   0.42084   0.95585   1.000
    C15     C    0.42074   0.50619   0.73965   1.000
    C16     C    0.50931   0.58964   0.65846   1.000
    C17     C    0.81146   0.80540   0.94783   1.000
    C18     C    0.73264   0.73301   0.04402   1.000
    C19     C    0.12018   0.93056   0.08775   1.000
    C20     C    0.07162   0.74094   0.98338   1.000
    C21     C    0.10521   0.74197   0.27413   1.000
    C22     C    0.15209   0.93219   0.36656   1.000
    C23     C    0.88698   0.60201   0.93134   1.000
    C24     C    0.16688   0.52175   0.27259   1.000
    C25     C    0.37813   0.59826   0.43022   1.000
    C26     C    0.55838   0.74756   0.31311   1.000
    C27     C    0.34984   0.68215   0.15185   1.000
    C28     C    0.87256   0.31549   0.20108   1.000
    C29     C    0.67322   0.31601   0.06808   1.000
    C30     C    0.80984   0.64791   0.24643   1.000
    C31     C    0.00091   0.63406   0.37305   1.000
    C32     C    0.73478   0.57905   0.04411   1.000
    C33     C    0.57922   0.49376   0.26031   1.000
    C34     C    0.49083   0.41025   0.34153   1.000
    C35     C    0.18863   0.19445   0.05221   1.000
    C36     C    0.26728   0.26688   0.95598   1.000
    C37     C    0.87989   0.06947   0.91234   1.000
    C38     C    0.92863   0.25909   0.01672   1.000
    C39     C    0.89477   0.25801   0.72591   1.000
    C40     C    0.84772   0.06779   0.63347   1.000
    C41     C    0.11305   0.39799   0.06868   1.000
    C42     C    0.83330   0.47834   0.72754   1.000
    C43     C    0.62209   0.40178   0.56985   1.000
    C44     C    0.44180   0.25239   0.68686   1.000
    C45     C    0.65028   0.31787   0.84820   1.000
    C46     C    0.14492   0.61248   0.79226   1.000
    C47     C    0.25588   0.61148   0.86599   1.000
    C48     C    0.27663   0.51726   0.85372   1.000
    C49     C    0.17913   0.42775   0.76836   1.000
    C50     C    0.07189   0.43484   0.69720   1.000
    C51     C    0.39443   0.50968   0.92685   1.000
    C52     C    0.36952   0.45295   0.97343   1.000
    C53     C    0.52891   0.55791   0.95303   1.000
    C54     C    0.56945   0.61072   0.90081   1.000
    C55     C    0.50650   0.57322   0.79084   1.000
    C56     C    0.55672   0.61944   0.74396   1.000
    C57     C    0.72480   0.73906   0.90487   1.000
    C58     C    0.68022   0.69739   0.95787   1.000
    C59     C    0.11685   0.88598   0.12645   1.000
    C60     C    0.08902   0.77940   0.06836   1.000
    C61     C    0.08480   0.72312   0.11945   1.000
    C62     C    0.10877   0.78017   0.22929   1.000
    C63     C    0.13504   0.88665   0.28173   1.000
    C64     C    0.04868   0.60903   0.05893   1.000
    C65     C    0.93914   0.55676   0.96036   1.000
    C66     C    0.11284   0.55036   0.09918   1.000
    C67     C    0.23764   0.59574   0.19699   1.000
    C68     C    0.24987   0.57198   0.27732   1.000
    C69     C    0.36915   0.61438   0.36634   1.000
    C70     C    0.46832   0.69807   0.30125   1.000
    C71     C    0.35141   0.66116   0.21143   1.000
    C72     C    0.85500   0.38750   0.20774   1.000
    C73     C    0.74405   0.38847   0.13399   1.000
    C74     C    0.72326   0.48269   0.14626   1.000
    C75     C    0.82072   0.57222   0.23164   1.000
    C76     C    0.92794   0.56516   0.30283   1.000
    C77     C    0.60546   0.49023   0.07312   1.000
    C78     C    0.63037   0.54694   0.02652   1.000
    C79     C    0.47097   0.44201   0.04695   1.000
    C80     C    0.43051   0.38918   0.09917   1.000
    C81     C    0.49351   0.42670   0.20914   1.000
    C82     C    0.44335   0.38047   0.25604   1.000
    C83     C    0.27525   0.26082   0.09515   1.000
    C84     C    0.31976   0.30249   0.04213   1.000
    C85     C    0.88320   0.11404   0.87362   1.000
    C86     C    0.91112   0.22063   0.93172   1.000
    C87     C    0.91526   0.27691   0.88062   1.000
    C88     C    0.89122   0.21983   0.77076   1.000
    C89     C    0.86486   0.11334   0.71832   1.000
    C90     C    0.95142   0.39099   0.94113   1.000
    C91     C    0.06092   0.44328   0.03969   1.000
    C92     C    0.88725   0.44967   0.90089   1.000
    C93     C    0.76249   0.40429   0.80307   1.000
    C94     C    0.75030   0.42808   0.72277   1.000
    C95     C    0.63105   0.38566   0.63372   1.000
    C96     C    0.53186   0.30192   0.69877   1.000
    C97     C    0.64873   0.33885   0.78862   1.000
    C98     C    0.70864   0.56876   0.53265   1.000
    C99     C    0.12141   0.67544   0.58589   1.000
    C100    C    0.98949   0.86439   0.83371   1.000
    C101    C    0.84741   0.83741   0.49741   1.000
    C102    C    0.54843   0.84954   0.66680   1.000
    C103    C    0.29180   0.43130   0.46739   1.000
    C104    C    0.87838   0.32457   0.41419   1.000
    C105    C    0.01045   0.13559   0.16619   1.000
    C106    C    0.15290   0.16271   0.50277   1.000
    C107    C    0.45153   0.15000   0.33309   1.000
    C108    C    0.05468   0.52539   0.70634   1.000
    C109    C    0.66614   0.70014   0.79828   1.000
    C110    C    0.13972   0.94039   0.23213   1.000
    C111    C    0.47894   0.67611   0.37929   1.000
    C112    C    0.94520   0.47460   0.29367   1.000
    C113    C    0.33404   0.29970   0.20173   1.000
    C114    C    0.86012   0.05960   0.76791   1.000
    C115    C    0.52130   0.32386   0.62073   1.000
    O116    O    0.91987   0.23986   0.97422   1.000
    O117    O    0.68258   0.56300   0.03531   1.000
    O118    O    0.61791   0.51859   0.04982   1.000
    O119    O    0.57964   0.55243   0.98977   1.000
    O120    O    0.08699   0.42063   0.05418   1.000
    O121    O    0.08688   0.49682   0.06943   1.000
    O122    O    0.00617   0.41713   0.99041   1.000
    O123    O    0.29750   0.28166   0.06864   1.000
    O124    O    0.37514   0.34583   0.07065   1.000
    O125    O    0.29352   0.28469   0.99906   1.000
    O126    O    0.70643   0.71520   0.00095   1.000
    O127    O    0.53821   0.46612   0.06003   1.000
    O128    O    0.45074   0.41559   0.07306   1.000
    O129    O    0.42024   0.44748   0.01019   1.000
    O130    O    0.23194   0.22763   0.07368   1.000
    O131    O    0.08076   0.57970   0.07905   1.000
    O132    O    0.06674   0.66608   0.08919   1.000
    O133    O    0.99391   0.58290   0.00964   1.000
    O134    O    0.70863   0.35224   0.10103   1.000
    O135    O    0.08691   0.75126   0.09391   1.000
    O136    O    0.10294   0.83269   0.09741   1.000
    O137    O    0.08032   0.76017   0.02587   1.000
    O138    O    0.66436   0.48646   0.10969   1.000
    O139    O    0.11852   0.90827   0.10710   1.000
    O140    O    0.30464   0.28026   0.14844   1.000
    O141    O    0.46201   0.40794   0.15415   1.000
    O142    O    0.17524   0.57305   0.14808   1.000
    O143    O    0.09679   0.75164   0.17437   1.000
    O144    O    0.12829   0.91319   0.17929   1.000
    O145    O    0.73365   0.43558   0.14013   1.000
    O146    O    0.79952   0.38798   0.17087   1.000
    O147    O    0.77199   0.52745   0.18895   1.000
    O148    O    0.35063   0.67166   0.18164   1.000
    O149    O    0.13883   0.19047   0.22542   1.000
    O150    O    0.29453   0.62845   0.20421   1.000
    O151    O    0.24376   0.58386   0.23715   1.000
    O152    O    0.86378   0.35149   0.20441   1.000
    O153    O    0.38869   0.34008   0.22888   1.000
    O154    O    0.30063   0.27252   0.24319   1.000
    O155    O    0.90010   0.43105   0.25071   1.000
    O156    O    0.46843   0.40358   0.23259   1.000
    O157    O    0.53636   0.46023   0.23472   1.000
    O158    O    0.40987   0.67962   0.25634   1.000
    O159    O    0.10699   0.76107   0.25171   1.000
    O160    O    0.12190   0.83341   0.25551   1.000
    O161    O    0.81528   0.61006   0.23904   1.000
    O162    O    0.87433   0.56869   0.26724   1.000
    O163    O    0.13738   0.91352   0.25693   1.000
    O164    O    0.16537   0.01825   0.27212   1.000
    O165    O    0.46709   0.39536   0.29878   1.000
    O166    O    0.20838   0.54686   0.27496   1.000
    O167    O    0.30951   0.59318   0.32183   1.000
    O168    O    0.14356   0.90942   0.32414   1.000
    O169    O    0.22912   0.17073   0.29838   1.000
    O170    O    0.35937   0.19767   0.30887   1.000
    O171    O    0.18201   0.25079   0.33420   1.000
    O172    O    0.31011   0.25311   0.38377   1.000
    O173    O    0.93657   0.51988   0.29825   1.000
    O174    O    0.99768   0.47415   0.36045   1.000
    O175    O    0.51335   0.72281   0.30718   1.000
    O176    O    0.47363   0.68709   0.34027   1.000
    O177    O    0.96443   0.59961   0.33794   1.000
    O178    O    0.14391   0.17617   0.34793   1.000
    O179    O    0.27201   0.17849   0.39751   1.000
    O180    O    0.42405   0.64525   0.37282   1.000
    O181    O    0.37364   0.60632   0.39828   1.000
    O182    O    0.56324   0.70750   0.44818   1.000
    O183    O    0.22490   0.25855   0.43332   1.000
    O184    O    0.96427   0.39913   0.42071   1.000
    O185    O    0.17098   0.45250   0.44732   1.000
    O186    O    0.00029   0.50011   0.50010   1.000
    O187    O    0.25295   0.21179   0.49283   1.000
    O188    O    0.43715   0.29236   0.55181   1.000
    O189    O    0.74747   0.78815   0.50724   1.000
    O190    O    0.77575   0.74155   0.56686   1.000
    O191    O    0.72796   0.82137   0.60246   1.000
    O192    O    0.69042   0.74666   0.61623   1.000
    O193    O    0.82953   0.54764   0.55280   1.000
    O194    O    0.62657   0.39372   0.60179   1.000
    O195    O    0.03591   0.60098   0.57942   1.000
    O196    O    0.00255   0.52595   0.63965   1.000
    O197    O    0.85618   0.82403   0.65225   1.000
    O198    O    0.81863   0.74932   0.66602   1.000
    O199    O    0.57618   0.35476   0.62723   1.000
    O200    O    0.52658   0.31289   0.65975   1.000
    O201    O    0.03539   0.40039   0.66210   1.000
    O202    O    0.85629   0.09056   0.67590   1.000
    O203    O    0.69068   0.40687   0.67825   1.000
    O204    O    0.53302   0.60454   0.70121   1.000
    O205    O    0.64086   0.80198   0.69110   1.000
    O206    O    0.48683   0.27716   0.69282   1.000
    O207    O    0.77084   0.82915   0.70162   1.000
    O208    O    0.83426   0.98173   0.72788   1.000
    O209    O    0.06328   0.48011   0.70177   1.000
    O210    O    0.12551   0.43129   0.73278   1.000
    O211    O    0.59029   0.32038   0.74370   1.000
    O212    O    0.09980   0.56894   0.74930   1.000
    O213    O    0.69972   0.72729   0.75684   1.000
    O214    O    0.86139   0.80941   0.77455   1.000
    O215    O    0.86249   0.08647   0.74311   1.000
    O216    O    0.87804   0.16658   0.74454   1.000
    O217    O    0.79180   0.45321   0.72516   1.000
    O218    O    0.75640   0.41618   0.76292   1.000
    O219    O    0.89299   0.23892   0.74833   1.000
    O220    O    0.46362   0.53970   0.76525   1.000
    O221    O    0.53161   0.59633   0.76740   1.000
    O222    O    0.61143   0.65979   0.77112   1.000
    O223    O    0.18454   0.38990   0.76097   1.000
    O224    O    0.87166   0.08682   0.82077   1.000
    O225    O    0.22788   0.47250   0.81104   1.000
    O226    O    0.90324   0.24837   0.82569   1.000
    O227    O    0.70561   0.37157   0.79585   1.000
    O228    O    0.64950   0.32836   0.81841   1.000
    O229    O    0.53797   0.59197   0.84582   1.000
    O230    O    0.13618   0.64849   0.79559   1.000
    O231    O    0.20040   0.61198   0.82913   1.000
    O232    O    0.69547   0.71960   0.85157   1.000
    O233    O    0.82487   0.42698   0.85198   1.000
    O234    O    0.26626   0.56437   0.85986   1.000
    O235    O    0.33553   0.51347   0.89029   1.000
    O236    O    0.29131   0.64771   0.89895   1.000
    O237    O    0.88155   0.09176   0.89298   1.000
    O238    O    0.89716   0.16734   0.90267   1.000
    O239    O    0.91319   0.24877   0.90617   1.000
    O240    O    0.93334   0.33395   0.91087   1.000
    O241    O    0.54918   0.58431   0.92692   1.000
    O242    O    0.62483   0.65405   0.92934   1.000
    O243    O    0.91933   0.42033   0.92101   1.000
    O244    O    0.91319   0.50322   0.93063   1.000
    O245    O    0.76813   0.77223   0.92635   1.000
    O246    O    0.70251   0.71823   0.93137   1.000
    O247    O    0.46167   0.53380   0.93994   1.000
    O248    O    0.38197   0.48132   0.95014   1.000
    O249    O    0.91306   0.57939   0.94585   1.000
    O250    O    0.31731   0.43690   0.96464   1.000
loop_
    _geom_bond_atom_site_label_1
    _geom_bond_atom_site_label_2
    _geom_bond_distance
    _geom_bond_site_symmetry_2
    _ccdc_geom_bond_type
    C38    O116      0.54494  1_554   S
    C86    O116      0.54494      .   S
    C78    O117      0.54492      .   S
    C32    O117      0.54492      .   S
    C78    O118      0.70053      .   S
    C77    O118      0.70053      .   S
    C78    O119      0.70099  1_554   S
    C53    O119      0.70099      .   S
    C91    O120      0.54502      .   S
    C41    O120      0.54502      .   S
    C91    O121      0.70131      .   S
    C66    O121      0.70131      .   S
    C91    O122      0.70279  1_554   S
    C90    O122      0.70279  1_655   S
    C84    O123      0.69583      .   S
    C83    O123      0.69583      .   S
    C84    O124      0.70439      .   S
    C80    O124      0.70439      .   S
    C84    O125      0.54507  1_554   S
    C36    O125      0.54507      .   S
    C18    O126      0.54506      .   S
    C58    O126      0.54506  1_556   S
    C79    O127      0.70922      .   S
    C77    O127      0.70922      .   S
    C79    O128      0.74298      .   S
    C80    O128      0.74298      .   S
    C79    O129      0.70098      .   S
    C52    O129      0.70098  1_556   S
    C35    O130      0.54557      .   S
    C83    O130      0.54557      .   S
    C64    O131      0.70990      .   S
    C66    O131      0.70990      .   S
    C64    O132      0.74222      .   S
    C61    O132      0.74222      .   S
    C64    O133      0.70292  1_455   S
    C65    O133      0.70292  1_556   S
    C29    O134      0.54498      .   S
    C73    O134      0.54498      .   S
    C60    O135      0.70265      .   S
    C61    O135      0.70265      .   S
    C60    O136      0.69497      .   S
    C59    O136      0.69497      .   S
    C60    O137      0.54493      .   S
    C20    O137      0.54493  1_556   S
    C77    O138      0.73876      .   S
    C74    O138      0.73876      .   S
    C19    O139      0.54528      .   S
    C59    O139      0.54528      .   S
    C83    O140      0.67617      .   S
    C113   O140      0.67617      .   S
    C80    O141      0.70227      .   S
    C81    O141      0.70227      .   S
    C66    O142      0.74529      .   S
    C67    O142      0.74529      .   S
    C61    O143      0.70317      .   S
    C62    O143      0.70317      .   S
    C59    O144      0.67657      .   S
    C110   O144      0.67657      .   S
    C73    O145      0.70173      .   S
    C74    O145      0.70173      .   S
    C73    O146      0.69383      .   S
    C72    O146      0.69383      .   S
    C74    O147      0.70084      .   S
    C75    O147      0.70084      .   S
    C27    O148      0.54477      .   S
    C71    O148      0.54477      .   S
    C105   O149      1.34275      .   S
    C7     O149      1.34275      .   S
    C67    O150      0.70333      .   S
    C71    O150      0.70333      .   S
    C67    O151      0.70177      .   S
    C68    O151      0.70177      .   S
    C28    O152      0.54530      .   S
    C72    O152      0.54530      .   S
    C113   O153      0.67568      .   S
    C82    O153      0.67568      .   S
    C113   O154      1.02490      .   S
    C7     O154      1.02490      .   S
    C72    O155      0.67859      .   S
    C112   O155      0.67859      .   S
    C81    O156      0.69407      .   S
    C82    O156      0.69407      .   S
    C81    O157      0.54408      .   S
    C33    O157      0.54408      .   S
    C71    O158      0.69539      .   S
    C70    O158      0.69539      .   S
    C62    O159      0.54460      .   S
    C21    O159      0.54460      .   S
    C62    O160      0.69479      .   S
    C63    O160      0.69479      .   S
    C75    O161      0.54494      .   S
    C30    O161      0.54494      .   S
    C75    O162      0.69277      .   S
    C76    O162      0.69277      .   S
    C110   O163      0.67672      .   S
    C63    O163      0.67672      .   S
    C110   O164      1.01323  1_565   S
    C9     O164      1.01323      .   S
    C82    O165      0.54435      .   S
    C34    O165      0.54435      .   S
    C24    O166      0.54475      .   S
    C68    O166      0.54475      .   S
    C68    O167      0.69574      .   S
    C69    O167      0.69574      .   S
    C63    O168      0.54549      .   S
    C22    O168      0.54549      .   S
    C7     O169      1.30191      .   S
    C9     O169      1.30191      .   S
    C7     O170      1.34344      .   S
    C107   O170      1.34344      .   S
    C7     O171      1.33440      .   S
    C6     O171      1.33440      .   S
    C7     O172      1.38693      .   S
    C8     O172      1.38693      .   S
    C112   O173      0.67674      .   S
    C76    O173      0.67674      .   S
    C112   O174      1.01263      .   S
    C5     O174      1.01263  1_455   S
    C70    O175      0.54573      .   S
    C26    O175      0.54573      .   S
    C70    O176      0.67703      .   S
    C111   O176      0.67703      .   S
    C76    O177      0.54521      .   S
    C31    O177      0.54521  1_455   S
    C9     O178      1.29893      .   S
    C6     O178      1.29893      .   S
    C9     O179      1.28905      .   S
    C8     O179      1.28905      .   S
    C69    O180      0.67600      .   S
    C111   O180      0.67600      .   S
    C69    O181      0.54470      .   S
    C25    O181      0.54470      .   S
    C111   O182      1.02887      .   S
    C3     O182      1.02887      .   S
    C6     O183      1.35508      .   S
    C8     O183      1.35508      .   S
    C104   O184      1.34925      .   S
    C5     O184      1.34925  1_455   S
    C5     O185      1.35043      .   S
    C103   O185      1.35043      .   S
    C5     O186      1.28547      .   S
    C0     O186      1.28547  1_655   S
    C8     O187      1.34552      .   S
    C106   O187      1.34552      .   S
    C8     O188      1.02806      .   S
    C115   O188      1.02806      .   S
    C101   O189      1.34504      .   S
    C3     O189      1.34504      .   S
    C3     O190      1.35532      .   S
    C1     O190      1.35532      .   S
    C3     O191      1.28790      .   S
    C4     O191      1.28790      .   S
    C3     O192      1.38738      .   S
    C2     O192      1.38738      .   S
    C98    O193      1.35070      .   S
    C0     O193      1.35070      .   S
    C43    O194      0.54471      .   S
    C95    O194      0.54471      .   S
    C0     O195      1.34606  1_655   S
    C99    O195      1.34606      .   S
    C0     O196      1.01124  1_655   S
    C108   O196      1.01124      .   S
    C1     O197      1.30024      .   S
    C4     O197      1.30024      .   S
    C1     O198      1.33430      .   S
    C2     O198      1.33430      .   S
    C115   O199      0.67598      .   S
    C95    O199      0.67598      .   S
    C115   O200      0.67704      .   S
    C96    O200      0.67704      .   S
    C13    O201      0.54520  1_655   S
    C50    O201      0.54520      .   S
    C40    O202      0.54548      .   S
    C89    O202      0.54548      .   S
    C95    O203      0.69571      .   S
    C94    O203      0.69571      .   S
    C16    O204      0.54435      .   S
    C56    O204      0.54435      .   S
    C102   O205      1.34451      .   S
    C2     O205      1.34451      .   S
    C44    O206      0.54572      .   S
    C96    O206      0.54572      .   S
    C4     O207      1.30194      .   S
    C2     O207      1.30194      .   S
    C4     O208      1.01339      .   S
    C114   O208      1.01339  1_545   S
    C50    O209      0.67675      .   S
    C108   O209      0.67675      .   S
    C50    O210      0.69279      .   S
    C49    O210      0.69279      .   S
    C96    O211      0.69534      .   S
    C97    O211      0.69534      .   S
    C108   O212      0.67861      .   S
    C46    O212      0.67861      .   S
    C2     O213      1.02532      .   S
    C109   O213      1.02532      .   S
    C2     O214      1.34057      .   S
    C100   O214      1.34057      .   S
    C89    O215      0.67673      .   S
    C114   O215      0.67673      .   S
    C89    O216      0.69480      .   S
    C88    O216      0.69480      .   S
    C94    O217      0.54474      .   S
    C42    O217      0.54474      .   S
    C94    O218      0.70177      .   S
    C93    O218      0.70177      .   S
    C39    O219      0.54459      .   S
    C88    O219      0.54459      .   S
    C15    O220      0.54409      .   S
    C55    O220      0.54409      .   S
    C56    O221      0.69410      .   S
    C55    O221      0.69410      .   S
    C56    O222      0.67568      .   S
    C109   O222      0.67568      .   S
    C12    O223      0.54493      .   S
    C49    O223      0.54493      .   S
    C114   O224      0.67657      .   S
    C85    O224      0.67657      .   S
    C49    O225      0.70083      .   S
    C48    O225      0.70083      .   S
    C88    O226      0.70319      .   S
    C87    O226      0.70319      .   S
    C97    O227      0.70331      .   S
    C93    O227      0.70331      .   S
    C97    O228      0.54477      .   S
    C45    O228      0.54477      .   S
    C55    O229      0.70227      .   S
    C54    O229      0.70227      .   S
    C46    O230      0.54529      .   S
    C10    O230      0.54529      .   S
    C46    O231      0.69387      .   S
    C47    O231      0.69387      .   S
    C109   O232      0.67615      .   S
    C57    O232      0.67615      .   S
    C93    O233      0.74518      .   S
    C92    O233      0.74518      .   S
    C48    O234      0.70173      .   S
    C47    O234      0.70173      .   S
    C48    O235      0.73877      .   S
    C51    O235      0.73877      .   S
    C47    O236      0.54498      .   S
    C11    O236      0.54498      .   S
    C85    O237      0.54528      .   S
    C37    O237      0.54528      .   S
    C85    O238      0.69499      .   S
    C86    O238      0.69499      .   S
    C87    O239      0.70265      .   S
    C86    O239      0.70265      .   S
    C87    O240      0.74226      .   S
    C90    O240      0.74226      .   S
    C54    O241      0.74300      .   S
    C53    O241      0.74300      .   S
    C54    O242      0.70439      .   S
    C58    O242      0.70439      .   S
    C92    O243      0.70990      .   S
    C90    O243      0.70990      .   S
    C92    O244      0.70131      .   S
    C65    O244      0.70131      .   S
    C57    O245      0.54556      .   S
    C17    O245      0.54556      .   S
    C57    O246      0.69584      .   S
    C58    O246      0.69584      .   S
    C51    O247      0.70923      .   S
    C53    O247      0.70923      .   S
    C51    O248      0.70055      .   S
    C52    O248      0.70055      .   S
    C23    O249      0.54501      .   S
    C65    O249      0.54501      .   S
    C14    O250      0.54492      .   S
    C52    O250      0.54492      .   S
