# CIF file generated by openbabel 2.4.90, see http://openbabel.sf.net
data_I
_chemical_name_common ''
_cell_length_a 6.8215
_cell_length_b 9.31303
_cell_length_c 10.182
_cell_angle_alpha 67.1916
_cell_angle_beta 81.405
_cell_angle_gamma 73.3754
_space_group_name_H-M_alt 'P 1'
_space_group_name_Hall 'P 1'
loop_
    _symmetry_equiv_pos_as_xyz
    x,y,z
loop_
    _atom_site_label
    _atom_site_type_symbol
    _atom_site_fract_x
    _atom_site_fract_y
    _atom_site_fract_z
    _atom_site_occupancy
    Ca0     Ca   0.75536   0.54482   0.88208   1.000
    H1      H    0.25014   0.27293   0.44622   1.000
    H2      H    0.74998   0.72700   0.55378   1.000
    C3      C    0.25778   0.09531   0.38989   1.000
    C4      C    0.22975   0.60575   0.30800   1.000
    C5      C    0.25407   0.58792   0.80714   1.000
    C6      C    0.74238   0.90460   0.61010   1.000
    C7      C    0.77034   0.39418   0.69201   1.000
    C8      C    0.74607   0.41200   0.19287   1.000
    O9      O    0.22454   0.45672   0.35874   1.000
    O10     O    0.38710   0.59968   0.87596   1.000
    O11     O    0.25640   0.15343   0.49021   1.000
    O12     O    0.12312   0.50625   0.87174   1.000
    O13     O    0.25896   0.17678   0.25979   1.000
    Ca14    Ca   0.24475   0.45511   0.11792   1.000
    O15     O    0.23020   0.68490   0.17506   1.000
    O16     O    0.77554   0.54321   0.64127   1.000
    O17     O    0.61302   0.40026   0.12405   1.000
    O18     O    0.74373   0.84649   0.50979   1.000
    O19     O    0.87698   0.49370   0.12827   1.000
    O20     O    0.74115   0.82314   0.74020   1.000
    O21     O    0.76987   0.31503   0.82495   1.000
loop_
    _geom_bond_atom_site_label_1
    _geom_bond_atom_site_label_2
    _geom_bond_distance
    _geom_bond_site_symmetry_2
    _ccdc_geom_bond_type
    Ca14   O15       2.39884      .   S
    Ca14   O13       2.41043      .   S
    O17    C8        1.27788      .   S
    O19    C8        1.27838      .   S
    O15    C4        1.26576      .   S
    O13    C3        1.24563      .   S
    C4     O9        1.28896      .   S
    C3     O11       1.32636      .   S
    H1     O11       1.01635      .   S
    O18    H2        1.01636      .   S
    O18    C6        1.32635      .   S
    C6     O20       1.24562      .   S
    O16    C7        1.28894      .   S
    C7     O21       1.26577      .   S
    O20    Ca0       2.41038      .   S
    C5     O12       1.27839      .   S
    C5     O10       1.27789      .   S
    O21    Ca0       2.39887      .   S
    O9     Ca14      2.44082      .   S
    O10    Ca14      2.50724  1_556   S
    O10    Ca0       2.42141      .   S
    O12    Ca14      2.58232  1_556   S
    O12    Ca0       2.42250  1_455   S
    O16    Ca0       2.44088      .   S
    O17    Ca14      2.42144      .   S
    O17    Ca0       2.50726  1_554   S
    O19    Ca14      2.42251  1_655   S
    O19    Ca0       2.58236  1_554   S
