# CIF file generated by openbabel 2.4.90, see http://openbabel.sf.net
data_I
_chemical_name_common ''
_cell_length_a 6.8215
_cell_length_b 9.31303
_cell_length_c 10.182
_cell_angle_alpha 67.1916
_cell_angle_beta 81.405
_cell_angle_gamma 73.3754
_space_group_name_H-M_alt 'P 1'
_space_group_name_Hall 'P 1'
loop_
    _symmetry_equiv_pos_as_xyz
    x,y,z
loop_
    _atom_site_label
    _atom_site_type_symbol
    _atom_site_fract_x
    _atom_site_fract_y
    _atom_site_fract_z
    _atom_site_occupancy
    C0      C    0.24475   0.45511   0.11792   1.000
    C1      C    0.75536   0.54482   0.88208   1.000
    C2      C    0.25014   0.27293   0.44622   1.000
    C3      C    0.24405   0.91261   0.23993   1.000
    C4      C    0.27525   0.89274   0.66703   1.000
    C5      C    0.22222   0.47729   0.59839   1.000
    C6      C    0.74998   0.72700   0.55378   1.000
    C7      C    0.75608   0.08730   0.76007   1.000
    C8      C    0.72489   0.10719   0.33296   1.000
    C9      C    0.77789   0.52263   0.40162   1.000
    C10     C    0.23720   0.68577   0.40905   1.000
    C11     C    0.25045   0.67546   0.64933   1.000
    C12     C    0.24606   0.84689   0.35469   1.000
    C13     C    0.25778   0.09531   0.38989   1.000
    C14     C    0.26309   0.83538   0.59466   1.000
    C15     C    0.22975   0.60575   0.30800   1.000
    C16     C    0.25407   0.58792   0.80714   1.000
    C17     C    0.23436   0.60127   0.55667   1.000
    C18     C    0.25608   0.92270   0.44743   1.000
    C19     C    0.76294   0.31414   0.59096   1.000
    C20     C    0.74971   0.32445   0.35067   1.000
    C21     C    0.75408   0.15303   0.64531   1.000
    C22     C    0.74238   0.90460   0.61010   1.000
    C23     C    0.73706   0.16454   0.40534   1.000
    C24     C    0.77034   0.39418   0.69201   1.000
    C25     C    0.74607   0.41200   0.19287   1.000
    C26     C    0.76577   0.39865   0.44334   1.000
    C27     C    0.74407   0.07722   0.55256   1.000
    C28     C    0.22454   0.45672   0.35874   1.000
    C29     C    0.38710   0.59968   0.87596   1.000
    C30     C    0.25640   0.15343   0.49021   1.000
    C31     C    0.12312   0.50625   0.87174   1.000
    C32     C    0.25896   0.17678   0.25979   1.000
    C33     C    0.23020   0.68490   0.17506   1.000
    C34     C    0.77554   0.54321   0.64127   1.000
    C35     C    0.61302   0.40026   0.12405   1.000
    C36     C    0.74373   0.84649   0.50979   1.000
    C37     C    0.87698   0.49370   0.12827   1.000
    C38     C    0.74115   0.82314   0.74020   1.000
    C39     C    0.76987   0.31503   0.82495   1.000
    O40     O    0.23748   0.57001   0.14649   1.000
    O41     O    0.25186   0.31595   0.18886   1.000
    O42     O    0.67954   0.40613   0.15846   1.000
    O43     O    0.81153   0.45285   0.16057   1.000
    O44     O    0.22998   0.64533   0.24153   1.000
    O45     O    0.74789   0.36822   0.27177   1.000
    O46     O    0.24505   0.87975   0.29731   1.000
    O47     O    0.25837   0.13605   0.32484   1.000
    O48     O    0.22715   0.53123   0.33337   1.000
    O49     O    0.23348   0.64576   0.35852   1.000
    O50     O    0.73097   0.13587   0.36915   1.000
    O51     O    0.74338   0.24450   0.37800   1.000
    O52     O    0.75774   0.36155   0.39701   1.000
    O53     O    0.24163   0.76633   0.38187   1.000
    O54     O    0.25107   0.88479   0.40106   1.000
    O55     O    0.25693   0.00901   0.41866   1.000
    O56     O    0.25709   0.12437   0.44005   1.000
    O57     O    0.77183   0.46064   0.42248   1.000
    O58     O    0.74056   0.12088   0.47895   1.000
    O59     O    0.23578   0.64352   0.48286   1.000
    O60     O    0.76436   0.35639   0.51715   1.000
    O61     O    0.25327   0.21318   0.46821   1.000
    O62     O    0.25958   0.87904   0.52105   1.000
    O63     O    0.74685   0.78674   0.53178   1.000
    O64     O    0.74305   0.87555   0.55994   1.000
    O65     O    0.74322   0.99091   0.58133   1.000
    O66     O    0.74907   0.11512   0.59893   1.000
    O67     O    0.22829   0.53928   0.57753   1.000
    O68     O    0.24240   0.63837   0.60300   1.000
    O69     O    0.75851   0.23358   0.61813   1.000
    O70     O    0.76664   0.35416   0.64148   1.000
    O71     O    0.25677   0.75542   0.62200   1.000
    O72     O    0.26917   0.86406   0.63085   1.000
    O73     O    0.74176   0.86387   0.67515   1.000
    O74     O    0.77294   0.46869   0.66664   1.000
    O75     O    0.75508   0.12016   0.70269   1.000
    O76     O    0.25226   0.63169   0.72823   1.000
    O77     O    0.77010   0.35461   0.75848   1.000
    O78     O    0.74825   0.68398   0.81114   1.000
    O79     O    0.18860   0.54709   0.83944   1.000
    O80     O    0.32058   0.59380   0.84155   1.000
    O81     O    0.76261   0.42993   0.85352   1.000
    O82     O    0.23465   0.45592   0.23833   1.000
    O83     O    0.31593   0.52740   0.99694   1.000
    O84     O    0.57123   0.57225   0.87902   1.000
    O85     O    0.18394   0.48068   0.99483   1.000
    O86     O    0.93924   0.52554   0.87691   1.000
    O87     O    0.76545   0.54402   0.76167   1.000
    O88     O    0.42889   0.42769   0.12098   1.000
    O89     O    0.68419   0.47254   0.00307   1.000
    O90     O    0.06087   0.47441   0.12309   1.000
    O91     O    0.81617   0.51926   0.00518   1.000
loop_
    _geom_bond_atom_site_label_1
    _geom_bond_atom_site_label_2
    _geom_bond_distance
    _geom_bond_site_symmetry_2
    _ccdc_geom_bond_type
    C0     O40       1.19942      .   S
    C33    O40       1.19942      .   S
    C0     O41       1.20522      .   S
    C32    O41       1.20522      .   S
    C35    O42       0.63894      .   S
    C25    O42       0.63894      .   S
    C37    O43       0.63919      .   S
    C25    O43       0.63919      .   S
    C33    O44       0.63288      .   S
    C15    O44       0.63288      .   S
    C25    O45       0.74696      .   S
    C20    O45       0.74696      .   S
    C3     O46       0.54444      .   S
    C12    O46       0.54444      .   S
    C32    O47       0.62281      .   S
    C13    O47       0.62281      .   S
    C15    O48       0.64448      .   S
    C28    O48       0.64448      .   S
    C15    O49       0.74970      .   S
    C10    O49       0.74970      .   S
    C8     O50       0.54407      .   S
    C23    O50       0.54407      .   S
    C20    O51       0.69848      .   S
    C23    O51       0.69848      .   S
    C20    O52       0.69992      .   S
    C26    O52       0.69992      .   S
    C12    O53       0.69992      .   S
    C10    O53       0.69992      .   S
    C12    O54       0.69974      .   S
    C18    O54       0.69974      .   S
    C13    O55       0.74264      .   S
    C18    O55       0.74264  1_565   S
    C13    O56       0.66318      .   S
    C30    O56       0.66318      .   S
    C9     O57       0.54413      .   S
    C26    O57       0.54413      .   S
    C23    O58       0.70087      .   S
    C27    O58       0.70087      .   S
    C10    O59       0.70033      .   S
    C17    O59       0.70033      .   S
    C26    O60       0.70033      .   S
    C19    O60       0.70033      .   S
    C2     O61       0.50817      .   S
    C30    O61       0.50817      .   S
    C18    O62       0.70087      .   S
    C14    O62       0.70087      .   S
    C36    O63       0.50818      .   S
    C6     O63       0.50818      .   S
    C36    O64       0.66318      .   S
    C22    O64       0.66318      .   S
    C27    O65       0.74263  1_545   S
    C22    O65       0.74263      .   S
    C27    O66       0.69974      .   S
    C21    O66       0.69974      .   S
    C17    O67       0.54414      .   S
    C5     O67       0.54414      .   S
    C17    O68       0.69992      .   S
    C11    O68       0.69992      .   S
    C19    O69       0.69991      .   S
    C21    O69       0.69991      .   S
    C19    O70       0.74971      .   S
    C24    O70       0.74971      .   S
    C14    O71       0.69851      .   S
    C11    O71       0.69851      .   S
    C14    O72       0.54406      .   S
    C4     O72       0.54406      .   S
    C22    O73       0.62281      .   S
    C38    O73       0.62281      .   S
    C34    O74       0.64447      .   S
    C24    O74       0.64447      .   S
    C21    O75       0.54444      .   S
    C7     O75       0.54444      .   S
    C11    O76       0.74695      .   S
    C16    O76       0.74695      .   S
    C24    O77       0.63289      .   S
    C39    O77       0.63289      .   S
    C38    O78       1.20519      .   S
    C1     O78       1.20519      .   S
    C16    O79       0.63919      .   S
    C31    O79       0.63919      .   S
    C16    O80       0.63894      .   S
    C29    O80       0.63894      .   S
    C39    O81       1.19943      .   S
    C1     O81       1.19943      .   S
    C28    O82       1.22041      .   S
    C0     O82       1.22041      .   S
    C29    O83       1.25362      .   S
    C0     O83       1.25362  1_554   S
    C29    O84       1.21070      .   S
    C1     O84       1.21070      .   S
    C31    O85       1.29116      .   S
    C0     O85       1.29116  1_554   S
    C31    O86       1.21125  1_455   S
    C1     O86       1.21125      .   S
    C34    O87       1.22044      .   S
    C1     O87       1.22044      .   S
    C35    O88       1.21072      .   S
    C0     O88       1.21072      .   S
    C35    O89       1.25363      .   S
    C1     O89       1.25363  1_556   S
    C37    O90       1.21125  1_655   S
    C0     O90       1.21125      .   S
    C37    O91       1.29118      .   S
    C1     O91       1.29118  1_556   S
