# CIF file generated by openbabel 2.4.90, see http://openbabel.sf.net
data_I
_chemical_name_common ''
_cell_length_a 13.748
_cell_length_b 14.897
_cell_length_c 14.679
_cell_angle_alpha 107.387
_cell_angle_beta 112.496
_cell_angle_gamma 99.975
_space_group_name_H-M_alt 'P 1'
_space_group_name_Hall 'P 1'
loop_
    _symmetry_equiv_pos_as_xyz
    x,y,z
loop_
    _atom_site_label
    _atom_site_type_symbol
    _atom_site_fract_x
    _atom_site_fract_y
    _atom_site_fract_z
    _atom_site_occupancy
    Zn0     Zn   0.63164   0.03082   0.78657   1.000
    Zn1     Zn   0.51915   0.18235   0.42730   1.000
    Zn2     Zn   0.36899   0.96894   0.21347   1.000
    Zn3     Zn   0.50093   0.99998   0.50011   1.000
    Zn4     Zn   0.48169   0.81735   0.57253   1.000
