# CIF file generated by openbabel 2.4.90, see http://openbabel.sf.net
data_I
_chemical_name_common ''
_cell_length_a 13.748
_cell_length_b 14.897
_cell_length_c 14.679
_cell_angle_alpha 107.387
_cell_angle_beta 112.496
_cell_angle_gamma 99.975
_space_group_name_H-M_alt 'P 1'
_space_group_name_Hall 'P 1'
loop_
    _symmetry_equiv_pos_as_xyz
    x,y,z
loop_
    _atom_site_label
    _atom_site_type_symbol
    _atom_site_fract_x
    _atom_site_fract_y
    _atom_site_fract_z
    _atom_site_occupancy
    Zr0     Zr   0.48169   0.81735   0.57253   1.000
    Zr1     Zr   0.63164   0.03082   0.78657   1.000
    Zr2     Zr   0.51915   0.18235   0.42730   1.000
    Zr3     Zr   0.36899   0.96894   0.21347   1.000
    Zr4     Zr   0.50093   0.99998   0.50011   1.000
    N5      N    0.21859   0.34014   0.86796   1.000
    O6      O    0.35488   0.27088   0.11671   1.000
    N7      N    0.78231   0.65963   0.13202   1.000
    O8      O    0.64599   0.72882   0.88320   1.000
    N9      N    0.48171   0.97688   0.63719   1.000
    O10     O    0.52742   0.98833   0.67446   1.000
    O11     O    0.49474   0.98062   0.60285   1.000
    O12     O    0.48993   0.93496   0.62095   1.000
    N13     N    0.51939   0.02297   0.36253   1.000
    O14     O    0.47358   0.01148   0.32538   1.000
    O15     O    0.51112   0.06483   0.37884   1.000
    O16     O    0.50656   0.01924   0.39704   1.000
    O17     O    0.38013   0.27132   0.66904   1.000
    O18     O    0.63386   0.80359   0.29840   1.000
    O19     O    0.62075   0.72843   0.33089   1.000
    O20     O    0.36737   0.19625   0.70168   1.000
    O21     O    0.71930   0.86232   0.97779   1.000
    O22     O    0.28551   0.15274   0.02567   1.000
loop_
    _geom_bond_atom_site_label_1
    _geom_bond_atom_site_label_2
    _geom_bond_distance
    _geom_bond_site_symmetry_2
    _ccdc_geom_bond_type
    N5     O6        3.94886  1_556   S
    Zr2    O6        4.93674      .   S
    N7     O8        3.94926  1_554   S
    Zr0    O8        4.93772      .   S
    N9     O10       0.60608      .   S
    Zr1    O10       1.55587  1_545   S
    N9     O11       0.60973      .   S
    Zr4    O11       1.64748      .   S
    N9     O12       0.64463      .   S
    Zr0    O12       1.64724      .   S
    N13    O14       0.60614      .   S
    Zr3    O14       1.55638  1_565   S
    N13    O15       0.64444      .   S
    Zr2    O15       1.64679      .   S
    N13    O16       0.61056      .   S
    Zr4    O16       1.64877  1_565   S
    Zr2    O17       4.61061      .   S
    N5     O17       4.29787      .   S
    N7     O18       4.11451      .   S
    Zr4    O18       4.63485      .   S
    N7     O19       4.29737      .   S
    Zr0    O19       4.60975      .   S
    Zr4    O20       4.63921  1_565   S
    N5     O20       4.11688      .   S
    Zr1    O21       4.27802  1_545   S
    N7     O21       4.29934  1_554   S
    N5     O22       4.13782  1_556   S
    Zr3    O22       4.42628  1_565   S
