# CIF file generated by openbabel 2.4.90, see http://openbabel.sf.net
data_I
_chemical_name_common ''
_cell_length_a 13.748
_cell_length_b 14.897
_cell_length_c 14.679
_cell_angle_alpha 107.387
_cell_angle_beta 112.496
_cell_angle_gamma 99.975
_space_group_name_H-M_alt 'P 1'
_space_group_name_Hall 'P 1'
loop_
    _symmetry_equiv_pos_as_xyz
    x,y,z
loop_
    _atom_site_label
    _atom_site_type_symbol
    _atom_site_fract_x
    _atom_site_fract_y
    _atom_site_fract_z
    _atom_site_occupancy
    Zr0     Zr   0.48169   0.81735   0.57253   1.000
    Zr1     Zr   0.63164   0.03082   0.78657   1.000
    Zr2     Zr   0.51915   0.18235   0.42730   1.000
    Zr3     Zr   0.36899   0.96894   0.21347   1.000
    Zr4     Zr   0.50093   0.99998   0.50011   1.000
    N5      N    0.21859   0.34014   0.86796   1.000
    O6      O    0.28292   0.18125   0.03178   1.000
    O7      O    0.35488   0.27088   0.11671   1.000
    O8      O    0.39816   0.20142   0.70922   1.000
    O9      O    0.40925   0.27016   0.66801   1.000
    O10     O    0.26690   0.12002   0.01797   1.000
    O11     O    0.33658   0.19108   0.69413   1.000
    O12     O    0.35101   0.27248   0.67007   1.000
    O13     O    0.30930   0.12845   0.02116   1.000
    N14     N    0.78231   0.65963   0.13202   1.000
    O15     O    0.64599   0.72882   0.88320   1.000
    O16     O    0.69154   0.87133   0.97887   1.000
    O17     O    0.73392   0.87973   0.98203   1.000
    O18     O    0.60303   0.79845   0.29083   1.000
    O19     O    0.66469   0.80873   0.30596   1.000
    O20     O    0.71781   0.81850   0.96822   1.000
    O21     O    0.59164   0.72963   0.33192   1.000
    O22     O    0.64986   0.72723   0.32985   1.000
    N23     N    0.48171   0.97688   0.63719   1.000
    O24     O    0.52742   0.98833   0.67446   1.000
    O25     O    0.49474   0.98062   0.60285   1.000
    O26     O    0.48993   0.93496   0.62095   1.000
    N27     N    0.51939   0.02297   0.36253   1.000
    O28     O    0.47358   0.01148   0.32538   1.000
    O29     O    0.51112   0.06483   0.37884   1.000
    O30     O    0.50656   0.01924   0.39704   1.000
loop_
    _geom_bond_atom_site_label_1
    _geom_bond_atom_site_label_2
    _geom_bond_distance
    _geom_bond_site_symmetry_2
    _ccdc_geom_bond_type
    N5     O6        3.82973  1_556   S
    Zr3    O6        4.73695  1_565   S
    N5     O7        3.94886  1_556   S
    Zr2    O7        4.93674      .   S
    N5     O8        4.36879      .   S
    Zr4    O8        4.43914  1_565   S
    N5     O9        4.64523      .   S
    Zr2    O9        4.29950      .   S
    N5     O10       4.47131  1_556   S
    Zr3    O10       4.14040  1_565   S
    N5     O11       3.88605      .   S
    Zr4    O11       4.86095  1_565   S
    N5     O12       3.96241      .   S
    Zr2    O12       4.93611      .   S
    N5     O13       4.47351  1_556   S
    Zr3    O13       4.14725  1_565   S
    N14    O15       3.94926  1_554   S
    Zr0    O15       4.93772      .   S
    N14    O16       4.47333  1_554   S
    Zr1    O16       4.14706  1_545   S
    N14    O17       4.47103  1_554   S
    Zr1    O17       4.14049  1_545   S
    N14    O18       4.36668      .   S
    Zr4    O18       4.43481      .   S
    N14    O19       3.88349      .   S
    Zr4    O19       4.85667      .   S
    N14    O20       3.82946  1_554   S
    Zr1    O20       4.73696  1_545   S
    N14    O21       4.64474      .   S
    Zr0    O21       4.29858      .   S
    N14    O22       3.96189      .   S
    Zr0    O22       4.93530      .   S
    N23    O24       0.60608      .   S
    Zr1    O24       1.55587  1_545   S
    N23    O25       0.60973      .   S
    Zr4    O25       1.64748      .   S
    N23    O26       0.64463      .   S
    Zr0    O26       1.64724      .   S
    N27    O28       0.60614      .   S
    Zr3    O28       1.55638  1_565   S
    N27    O29       0.64444      .   S
    Zr2    O29       1.64679      .   S
    N27    O30       0.61056      .   S
    Zr4    O30       1.64877  1_565   S
