# CIF file generated by openbabel 2.4.90, see http://openbabel.sf.net
data_I
_chemical_name_common ''
_cell_length_a 23.173
_cell_length_b 23.132
_cell_length_c 22.876
_cell_angle_alpha 89.923
_cell_angle_beta 90.038
_cell_angle_gamma 119.768
_space_group_name_H-M_alt 'P 1'
_space_group_name_Hall 'P 1'
loop_
    _symmetry_equiv_pos_as_xyz
    x,y,z
loop_
    _atom_site_label
    _atom_site_type_symbol
    _atom_site_fract_x
    _atom_site_fract_y
    _atom_site_fract_z
    _atom_site_occupancy
    C0      C    0.27499   0.02193   0.63457   1.000
    C1      C    0.27499   0.52193   0.63457   1.000
    C2      C    0.77498   0.02194   0.63457   1.000
    C3      C    0.77498   0.52193   0.63457   1.000
    C4      C    0.02173   0.24793   0.46785   1.000
    C5      C    0.02174   0.74792   0.46785   1.000
    C6      C    0.52172   0.24793   0.46785   1.000
    C7      C    0.52173   0.74792   0.46785   1.000
    C8      C    0.02168   0.27473   0.36541   1.000
    C9      C    0.02168   0.77472   0.36541   1.000
    C10     C    0.52167   0.27473   0.36541   1.000
    C11     C    0.52167   0.77472   0.36541   1.000
    C12     C    0.24818   0.02185   0.53210   1.000
    C13     C    0.24819   0.52184   0.53210   1.000
    C14     C    0.74817   0.02185   0.53210   1.000
    C15     C    0.74818   0.52184   0.53200   1.000
    C16     C    0.24390   0.48676   0.58346   1.000
    C17     C    0.24390   0.98675   0.58346   1.000
    C18     C    0.74389   0.48676   0.58346   1.000
    C19     C    0.74389   0.98675   0.58346   1.000
    C20     C    0.20856   0.41691   0.58363   1.000
    C21     C    0.20856   0.91691   0.58363   1.000
    C22     C    0.70855   0.41691   0.58363   1.000
    C23     C    0.70854   0.91691   0.58363   1.000
    C24     C    0.48659   0.24369   0.41660   1.000
    C25     C    0.48659   0.74368   0.41660   1.000
    C26     C    0.98658   0.24369   0.41660   1.000
    C27     C    0.98658   0.74369   0.41660   1.000
    C28     C    0.41686   0.20855   0.41655   1.000
    C29     C    0.41686   0.70854   0.41655   1.000
    C30     C    0.91685   0.20855   0.41655   1.000
    C31     C    0.91685   0.70854   0.41655   1.000
    N32     N    0.30043   0.05167   0.67729   1.000
    N33     N    0.30043   0.55166   0.67729   1.000
    N34     N    0.80042   0.05167   0.67729   1.000
    N35     N    0.80042   0.55166   0.67729   1.000
    N36     N    0.05141   0.25235   0.51071   1.000
    N37     N    0.05141   0.75234   0.51071   1.000
    N38     N    0.55140   0.25235   0.51071   1.000
    N39     N    0.55141   0.75234   0.51071   1.000
    N40     N    0.05138   0.30010   0.32262   1.000
    N41     N    0.05138   0.80009   0.32262   1.000
    N42     N    0.55137   0.30010   0.32262   1.000
    N43     N    0.55137   0.80009   0.32262   1.000
    N44     N    0.25261   0.05139   0.48908   1.000
    N45     N    0.25261   0.55138   0.48908   1.000
    N46     N    0.75259   0.05139   0.48908   1.000
    N47     N    0.75260   0.55138   0.48908   1.000
    N48     N    0.17894   0.35853   0.58369   1.000
    N49     N    0.17894   0.85852   0.58369   1.000
    N50     N    0.67893   0.35853   0.58369   1.000
    N51     N    0.67893   0.85853   0.58369   1.000
    N52     N    0.35858   0.17914   0.41652   1.000
    N53     N    0.35858   0.67914   0.41652   1.000
    N54     N    0.85857   0.17914   0.41652   1.000
    N55     N    0.85857   0.67914   0.41652   1.000
loop_
    _geom_bond_atom_site_label_1
    _geom_bond_atom_site_label_2
    _geom_bond_distance
    _geom_bond_site_symmetry_2
    _ccdc_geom_bond_type
    N43    C11       1.17237      .   S
    N42    C10       1.17239      .   S
    N41    C9        1.17238      .   S
    N40    C8        1.17237      .   S
    C11    C25       1.40251      .   S
    C10    C24       1.40251      .   S
    C8     C26       1.40267  1_455   S
    C9     C27       1.40266  1_455   S
    N54    C30       1.17243      .   S
    N55    C31       1.17243      .   S
    N53    C29       1.17241      .   S
    N52    C28       1.17241      .   S
    C30    C26       1.40265      .   S
    C29    C25       1.40265      .   S
    C28    C24       1.40265      .   S
    C31    C27       1.40265      .   S
    C26    C4        1.40271  1_655   S
    C24    C6        1.40245      .   S
    C27    C5        1.40274  1_655   S
    C25    C7        1.40247      .   S
    C5     N37       1.17230      .   S
    C4     N36       1.17230      .   S
    C6     N38       1.17230      .   S
    C7     N39       1.17230      .   S
    N44    C12       1.17252      .   S
    N46    C14       1.17252      .   S
    N47    C15       1.17059      .   S
    N45    C13       1.17252      .   S
    C15    C18       1.40413      .   S
    C14    C19       1.40247  1_545   S
    C12    C17       1.40247  1_545   S
    C13    C16       1.40221      .   S
    C19    C23       1.40258      .   S
    C19    C2        1.40276  1_565   S
    C18    C22       1.40256      .   S
    C18    C3        1.40263      .   S
    C16    C20       1.40256      .   S
    C16    C1        1.40264      .   S
    C17    C21       1.40256      .   S
    C17    C0        1.40276  1_565   S
    C21    N49       1.17237      .   S
    C22    N50       1.17237      .   S
    C20    N48       1.17237      .   S
    C23    N51       1.17235      .   S
    C1     N33       1.17219      .   S
    C2     N34       1.17219      .   S
    C3     N35       1.17219      .   S
    C0     N32       1.17220      .   S
