# CIF file generated by openbabel 2.4.90, see http://openbabel.sf.net
data_I
_chemical_name_common ''
_cell_length_a 23.173
_cell_length_b 23.132
_cell_length_c 22.876
_cell_angle_alpha 89.923
_cell_angle_beta 90.038
_cell_angle_gamma 119.768
_space_group_name_H-M_alt 'P 1'
_space_group_name_Hall 'P 1'
loop_
    _symmetry_equiv_pos_as_xyz
    x,y,z
loop_
    _atom_site_label
    _atom_site_type_symbol
    _atom_site_fract_x
    _atom_site_fract_y
    _atom_site_fract_z
    _atom_site_occupancy
    B0      B    0.32329   0.32329   0.00020   1.000
    B1      B    0.32328   0.82328   0.00000   1.000
    B2      B    0.82327   0.32329   0.00000   1.000
    B3      B    0.82328   0.82328   0.00020   1.000
    B4      B    0.99973   0.17681   0.66645   1.000
    B5      B    0.99973   0.67680   0.66645   1.000
    B6      B    0.49972   0.17681   0.66640   1.000
    B7      B    0.49972   0.67680   0.66645   1.000
    B8      B    0.17671   0.99970   0.33357   1.000
    B9      B    0.17671   0.49970   0.33357   1.000
    B10     B    0.67670   0.99970   0.33357   1.000
    B11     B    0.67670   0.49970   0.33357   1.000
    B12     B    0.17653   0.17649   0.50008   1.000
    B13     B    0.17653   0.67648   0.50008   1.000
    B14     B    0.67652   0.17649   0.50008   1.000
    B15     B    0.67652   0.67648   0.50008   1.000
    B16     B    0.00047   0.32326   0.16635   1.000
    B17     B    0.00047   0.82325   0.16635   1.000
    B18     B    0.50046   0.32326   0.16635   1.000
    B19     B    0.50046   0.82325   0.16635   1.000
    B20     B    0.32312   0.00036   0.83361   1.000
    B21     B    0.32312   0.50035   0.83361   1.000
    B22     B    0.82311   0.00036   0.83361   1.000
    B23     B    0.82311   0.50035   0.83361   1.000
    H24     H    0.42773   0.41196   0.88901   1.000
    H25     H    0.42773   0.91195   0.88900   1.000
    H26     H    0.92772   0.41196   0.88900   1.000
    H27     H    0.92772   0.91195   0.88900   1.000
    H28     H    0.41049   0.33005   0.90890   1.000
    H29     H    0.41049   0.83004   0.90891   1.000
    H30     H    0.91048   0.33005   0.90891   1.000
    H31     H    0.91048   0.83004   0.90891   1.000
    H32     H    0.45194   0.39723   0.95939   1.000
    H33     H    0.45195   0.89722   0.95930   1.000
    H34     H    0.95194   0.39723   0.95938   1.000
    H35     H    0.95194   0.89722   0.95938   1.000
    H36     H    0.16185   0.27087   0.03134   1.000
    H37     H    0.16185   0.77086   0.03134   1.000
    H38     H    0.66184   0.27087   0.03134   1.000
    H39     H    0.66184   0.77086   0.03134   1.000
    H40     H    0.22315   0.31377   0.08657   1.000
    H41     H    0.22315   0.81376   0.08656   1.000
    H42     H    0.72314   0.31377   0.08656   1.000
    H43     H    0.72314   0.81376   0.08656   1.000
    H44     H    0.21263   0.23764   0.05697   1.000
    H45     H    0.21263   0.73763   0.05697   1.000
    H46     H    0.71262   0.23764   0.05697   1.000
    H47     H    0.71262   0.73763   0.05697   1.000
    H48     H    0.48373   0.07196   0.55536   1.000
    H49     H    0.48373   0.57195   0.55536   1.000
    H50     H    0.98372   0.07196   0.55536   1.000
    H51     H    0.98372   0.57195   0.55536   1.000
    H52     H    0.41949   0.08964   0.57560   1.000
    H53     H    0.41949   0.58963   0.57560   1.000
    H54     H    0.91948   0.08964   0.57560   1.000
    H55     H    0.91948   0.58963   0.57560   1.000
    H56     H    0.44531   0.04772   0.62584   1.000
    H57     H    0.44531   0.54771   0.62584   1.000
    H58     H    0.94530   0.04772   0.62584   1.000
    H59     H    0.94530   0.54771   0.62584   1.000
    H60     H    0.10865   0.33834   0.69771   1.000
    H61     H    0.10866   0.83833   0.69771   1.000
    H62     H    0.60864   0.33834   0.69771   1.000
    H63     H    0.60864   0.83833   0.69771   1.000
    H64     H    0.09012   0.27646   0.75269   1.000
    H65     H    0.09012   0.77645   0.75269   1.000
    H66     H    0.59011   0.27646   0.75269   1.000
    H67     H    0.59011   0.77645   0.75269   1.000
    H68     H    0.02503   0.28806   0.72342   1.000
    H69     H    0.02503   0.78805   0.72342   1.000
    H70     H    0.52502   0.28806   0.72342   1.000
    H71     H    0.52502   0.78805   0.72342   1.000
    H72     H    0.08808   0.01667   0.22259   1.000
    H73     H    0.08808   0.51666   0.22259   1.000
    H74     H    0.58807   0.01667   0.22259   1.000
    H75     H    0.58807   0.51666   0.22259   1.000
    H76     H    0.58034   0.66963   0.75733   1.000
    H77     H    0.05482   0.10234   0.70697   1.000
    H78     H    0.05482   0.60233   0.70697   1.000
    H79     H    0.55481   0.10234   0.70697   1.000
    H80     H    0.16976   0.08062   0.24268   1.000
    H81     H    0.16976   0.58062   0.24268   1.000
    H82     H    0.66975   0.08062   0.24268   1.000
    H83     H    0.66975   0.58062   0.24268   1.000
    H84     H    0.10255   0.05516   0.29306   1.000
    H85     H    0.10255   0.55515   0.29306   1.000
    H86     H    0.60254   0.05516   0.29306   1.000
    H87     H    0.60254   0.55515   0.29306   1.000
    H88     H    0.22923   0.39002   0.36442   1.000
    H89     H    0.22923   0.89001   0.36442   1.000
    H90     H    0.72922   0.39002   0.36442   1.000
    H91     H    0.72922   0.89001   0.36442   1.000
    H92     H    0.18625   0.40850   0.41970   1.000
    H93     H    0.18625   0.90849   0.41970   1.000
    H94     H    0.68624   0.40850   0.41970   1.000
    H95     H    0.68624   0.90849   0.41970   1.000
    H96     H    0.26229   0.47374   0.39023   1.000
    H97     H    0.26229   0.97373   0.39023   1.000
    H98     H    0.76228   0.47374   0.39023   1.000
    H99     H    0.76228   0.97373   0.39023   1.000
    H100    H    0.07207   0.08805   0.38894   1.000
    H101    H    0.07208   0.58805   0.38894   1.000
    H102    H    0.57206   0.08805   0.38894   1.000
    H103    H    0.57207   0.58805   0.38895   1.000
    H104    H    0.08945   0.16996   0.40883   1.000
    H105    H    0.08945   0.66995   0.40883   1.000
    H106    H    0.58943   0.16996   0.40880   1.000
    H107    H    0.58944   0.66995   0.40883   1.000
    H108    H    0.27640   0.09020   0.24721   1.000
    H109    H    0.27640   0.59019   0.24721   1.000
    H110    H    0.77638   0.09020   0.24721   1.000
    H111    H    0.77639   0.59019   0.24721   1.000
    H112    H    0.28770   0.02484   0.27650   1.000
    H113    H    0.04780   0.10265   0.45928   1.000
    H114    H    0.04781   0.60264   0.45928   1.000
    H115    H    0.54779   0.10265   0.45920   1.000
    H116    H    0.54780   0.60264   0.45928   1.000
    H117    H    0.33801   0.22899   0.53120   1.000
    H118    H    0.33801   0.72898   0.53120   1.000
    H119    H    0.83800   0.22899   0.53120   1.000
    H120    H    0.83800   0.72898   0.53121   1.000
    H121    H    0.27669   0.18600   0.58644   1.000
    H122    H    0.27669   0.68599   0.58645   1.000
    H123    H    0.77668   0.18600   0.58644   1.000
    H124    H    0.77668   0.68599   0.58645   1.000
    H125    H    0.28718   0.26214   0.55673   1.000
    H126    H    0.28719   0.76213   0.55673   1.000
    H127    H    0.78717   0.26214   0.55673   1.000
    H128    H    0.78717   0.76213   0.55673   1.000
    H129    H    0.01627   0.42817   0.05511   1.000
    H130    H    0.01627   0.92816   0.05511   1.000
    H131    H    0.51626   0.42817   0.05511   1.000
    H132    H    0.51626   0.92816   0.05511   1.000
    H133    H    0.08068   0.41070   0.07535   1.000
    H134    H    0.08068   0.91069   0.07535   1.000
    H135    H    0.58067   0.41070   0.07535   1.000
    H136    H    0.58067   0.91069   0.07535   1.000
    H137    H    0.05464   0.45228   0.12561   1.000
    H138    H    0.05465   0.95227   0.12561   1.000
    H139    H    0.55463   0.45228   0.12561   1.000
    H140    H    0.55464   0.95227   0.12561   1.000
    H141    H    0.39158   0.16168   0.19787   1.000
    H142    H    0.39158   0.66167   0.19787   1.000
    H143    H    0.89157   0.16168   0.19787   1.000
    H144    H    0.89157   0.66167   0.19787   1.000
    H145    H    0.41002   0.22345   0.25278   1.000
    H146    H    0.41002   0.72344   0.25278   1.000
    H147    H    0.91000   0.22345   0.25278   1.000
    H148    H    0.91000   0.72344   0.25278   1.000
    H149    H    0.47518   0.21201   0.22360   1.000
    H150    H    0.47518   0.71200   0.22360   1.000
    H151    H    0.97517   0.21201   0.22360   1.000
    H152    H    0.97517   0.71200   0.22360   1.000
    H153    H    0.41187   0.48356   0.72280   1.000
    H154    H    0.41187   0.98355   0.72280   1.000
    H155    H    0.91186   0.48356   0.72280   1.000
    H156    H    0.91186   0.98355   0.72280   1.000
    H157    H    0.33015   0.41961   0.74288   1.000
    H158    H    0.33016   0.91960   0.74288   1.000
    H159    H    0.83015   0.41961   0.74288   1.000
    H160    H    0.83015   0.91960   0.74288   1.000
    H161    H    0.39735   0.44492   0.79320   1.000
    H162    H    0.39735   0.94491   0.79320   1.000
    H163    H    0.89734   0.44492   0.79320   1.000
    H164    H    0.89734   0.94491   0.79320   1.000
    H165    H    0.27081   0.11014   0.86435   1.000
    H166    H    0.27081   0.61013   0.86435   1.000
    H167    H    0.77080   0.11014   0.86435   1.000
    H168    H    0.77080   0.61013   0.86435   1.000
    H169    H    0.31382   0.09143   0.91955   1.000
    H170    H    0.31382   0.59142   0.91955   1.000
    H171    H    0.81381   0.09143   0.91955   1.000
    H172    H    0.81381   0.59142   0.91955   1.000
    H173    H    0.23762   0.02636   0.89024   1.000
    H174    H    0.23762   0.52635   0.89024   1.000
    H175    H    0.73761   0.02636   0.89024   1.000
    H176    H    0.73761   0.52635   0.89024   1.000
    H177    H    0.01637   0.08786   0.77746   1.000
    H178    H    0.01638   0.58785   0.77746   1.000
    H179    H    0.51636   0.08786   0.77746   1.000
    H180    H    0.51636   0.58785   0.77746   1.000
    H181    H    0.08035   0.16964   0.75733   1.000
    H182    H    0.08035   0.66963   0.75733   1.000
    H183    H    0.58034   0.16964   0.75733   1.000
    C184    C    0.25236   0.77477   0.80125   1.000
    C185    C    0.75235   0.27478   0.80125   1.000
    C186    C    0.75235   0.77477   0.80125   1.000
    C187    C    0.37631   0.46265   0.75906   1.000
    C188    C    0.37631   0.96264   0.75906   1.000
    C189    C    0.87630   0.46265   0.75906   1.000
    C190    C    0.87630   0.96264   0.75906   1.000
    C191    C    0.28355   0.07282   0.87953   1.000
    H192    H    0.55481   0.60233   0.70697   1.000
    H193    H    0.39037   0.22955   0.63542   1.000
    H194    H    0.39037   0.72954   0.63542   1.000
    H195    H    0.89036   0.22955   0.63542   1.000
    H196    H    0.89036   0.72954   0.63542   1.000
    H197    H    0.40880   0.18640   0.58022   1.000
    H198    H    0.40880   0.68639   0.58022   1.000
    H199    H    0.90879   0.18640   0.58022   1.000
    H200    H    0.90879   0.68639   0.58022   1.000
    H201    H    0.47395   0.26258   0.60957   1.000
    H202    H    0.47395   0.76257   0.60957   1.000
    H203    H    0.97394   0.26258   0.60957   1.000
    H204    H    0.97394   0.76257   0.60957   1.000
    H205    H    0.41207   0.42818   0.11100   1.000
    H206    H    0.41207   0.92817   0.11100   1.000
    H207    H    0.91206   0.42818   0.11000   1.000
    H208    H    0.91206   0.92817   0.11000   1.000
    H209    H    0.33024   0.41067   0.09111   1.000
    H210    H    0.33024   0.91066   0.09111   1.000
    H211    H    0.83023   0.41067   0.09111   1.000
    H212    H    0.83023   0.91066   0.09111   1.000
    H213    H    0.39734   0.45250   0.04060   1.000
    H214    H    0.39734   0.95249   0.04065   1.000
    H215    H    0.89733   0.45250   0.04065   1.000
    H216    H    0.89733   0.95249   0.04065   1.000
    H217    H    0.27099   0.16153   0.96910   1.000
    H218    H    0.27099   0.66152   0.96910   1.000
    H219    H    0.77098   0.16153   0.96910   1.000
    H220    H    0.77098   0.66152   0.96910   1.000
    H221    H    0.31409   0.22328   0.91411   1.000
    H222    H    0.31409   0.72327   0.91411   1.000
    H223    H    0.81408   0.22328   0.91411   1.000
    H224    H    0.81408   0.72327   0.91411   1.000
    H225    H    0.23782   0.21238   0.94340   1.000
    H226    H    0.23782   0.71237   0.94340   1.000
    H227    H    0.73781   0.21238   0.94340   1.000
    H228    H    0.73781   0.71237   0.94340   1.000
    H229    H    0.07208   0.48368   0.44473   1.000
    H230    H    0.07208   0.98367   0.44473   1.000
    H231    H    0.57207   0.48368   0.44473   1.000
    H232    H    0.57207   0.98367   0.44473   1.000
    H233    H    0.08960   0.41926   0.42446   1.000
    H234    H    0.08960   0.91925   0.42446   1.000
    H235    H    0.58959   0.41926   0.42446   1.000
    H236    H    0.58959   0.91925   0.42446   1.000
    H237    H    0.04793   0.44533   0.37424   1.000
    H238    H    0.04793   0.94532   0.37424   1.000
    H239    H    0.54792   0.44533   0.37424   1.000
    H240    H    0.54792   0.94532   0.37424   1.000
    H241    H    0.33805   0.10858   0.30221   1.000
    H242    H    0.33805   0.60857   0.30221   1.000
    H243    H    0.83804   0.10858   0.30221   1.000
    H244    H    0.83804   0.60857   0.30221   1.000
    C245    C    0.25617   0.01318   0.08331   1.000
    C246    C    0.25616   0.51317   0.08330   1.000
    C247    C    0.75615   0.01318   0.08330   1.000
    C248    C    0.75616   0.51317   0.08330   1.000
    C249    C    0.29172   0.08302   0.08350   1.000
    C250    C    0.29172   0.58301   0.08350   1.000
    C251    C    0.79171   0.08302   0.08350   1.000
    C252    C    0.79171   0.58301   0.08350   1.000
    C253    C    0.25631   0.24360   0.75008   1.000
    C254    C    0.25631   0.74359   0.75008   1.000
    H255    H    0.28770   0.52483   0.27657   1.000
    H256    H    0.78769   0.02484   0.27650   1.000
    H257    H    0.78769   0.52483   0.27657   1.000
    H258    H    0.48364   0.41200   0.27720   1.000
    H259    H    0.48364   0.91199   0.27720   1.000
    H260    H    0.98363   0.41200   0.27720   1.000
    H261    H    0.98363   0.91199   0.27720   1.000
    H262    H    0.41981   0.33018   0.25709   1.000
    H263    H    0.41981   0.83017   0.25709   1.000
    H264    H    0.91980   0.33018   0.25709   1.000
    H265    H    0.91980   0.83017   0.25709   1.000
    H266    H    0.44516   0.39759   0.20672   1.000
    H267    H    0.44516   0.89758   0.20672   1.000
    H268    H    0.94514   0.39759   0.20672   1.000
    H269    H    0.94515   0.89758   0.20672   1.000
    H270    H    0.10985   0.27062   0.13555   1.000
    H271    H    0.10985   0.77061   0.13555   1.000
    H272    H    0.60984   0.27062   0.13555   1.000
    H273    H    0.60984   0.77061   0.13555   1.000
    H274    H    0.09132   0.31381   0.08032   1.000
    H275    H    0.09132   0.81380   0.08032   1.000
    H276    H    0.59131   0.31381   0.08032   1.000
    H277    H    0.59131   0.81380   0.08032   1.000
    H278    H    0.02625   0.23753   0.10972   1.000
    H279    H    0.02625   0.73752   0.10972   1.000
    H280    H    0.52624   0.23753   0.10972   1.000
    H281    H    0.52624   0.73752   0.10972   1.000
    H282    H    0.08790   0.07162   0.61111   1.000
    H283    H    0.08790   0.57161   0.61111   1.000
    H284    H    0.58789   0.07162   0.61111   1.000
    H285    H    0.58789   0.57161   0.61110   1.000
    H286    H    0.16970   0.08910   0.59123   1.000
    H287    H    0.16970   0.58909   0.59123   1.000
    H288    H    0.66969   0.08910   0.59123   1.000
    H289    H    0.66968   0.58909   0.59123   1.000
    H290    H    0.10255   0.04731   0.54080   1.000
    H291    H    0.10255   0.54730   0.54083   1.000
    H292    H    0.60254   0.04731   0.54082   1.000
    H293    H    0.60254   0.54729   0.54083   1.000
    H294    H    0.22910   0.33835   0.46889   1.000
    H295    H    0.22910   0.83834   0.46890   1.000
    H296    H    0.72909   0.33835   0.46889   1.000
    H297    H    0.72909   0.83834   0.46890   1.000
    H298    H    0.18605   0.27682   0.41383   1.000
    H299    H    0.18605   0.77681   0.41380   1.000
    H300    H    0.68604   0.27683   0.41383   1.000
    H301    H    0.68604   0.77681   0.41384   1.000
    H302    H    0.26214   0.28741   0.44332   1.000
    H303    H    0.26215   0.78740   0.44332   1.000
    H304    H    0.76213   0.28741   0.44332   1.000
    H305    H    0.76213   0.78740   0.44333   1.000
    H306    H    0.42776   0.01607   0.94478   1.000
    H307    H    0.42776   0.51606   0.94478   1.000
    H308    H    0.92775   0.01607   0.94478   1.000
    H309    H    0.92775   0.51606   0.94478   1.000
    H310    H    0.41041   0.08066   0.92450   1.000
    H311    H    0.41041   0.58065   0.92450   1.000
    H312    H    0.91040   0.08066   0.92450   1.000
    H313    H    0.91040   0.58065   0.92450   1.000
    H314    H    0.45185   0.05449   0.87423   1.000
    H315    H    0.45185   0.55448   0.87423   1.000
    H316    H    0.95184   0.05449   0.87423   1.000
    H317    H    0.95184   0.55448   0.87423   1.000
    H318    H    0.16185   0.39147   0.80214   1.000
    H319    H    0.16185   0.89146   0.80214   1.000
    H320    H    0.66184   0.39147   0.80214   1.000
    H321    H    0.66184   0.89146   0.80214   1.000
    H322    H    0.22356   0.40994   0.74722   1.000
    H323    H    0.22356   0.90993   0.74722   1.000
    H324    H    0.72355   0.40994   0.74722   1.000
    H325    H    0.72355   0.90993   0.74720   1.000
    H326    H    0.21222   0.47525   0.77643   1.000
    H327    H    0.21222   0.97524   0.77643   1.000
    H328    H    0.71221   0.47525   0.77643   1.000
    H329    H    0.71221   0.97524   0.77643   1.000
    C330    C    0.47823   0.25213   0.96779   1.000
    C331    C    0.47823   0.75212   0.96779   1.000
    C332    C    0.97822   0.25213   0.96779   1.000
    C333    C    0.97822   0.75212   0.96779   1.000
    C334    C    0.41333   0.37623   0.92522   1.000
    C335    C    0.41334   0.87622   0.92522   1.000
    C336    C    0.91332   0.37623   0.92522   1.000
    C337    C    0.91333   0.87622   0.92522   1.000
    C338    C    0.21176   0.28365   0.04645   1.000
    C339    C    0.21176   0.78364   0.04645   1.000
    C340    C    0.71175   0.28365   0.04645   1.000
    C341    C    0.71175   0.78364   0.04645   1.000
    C342    C    0.46270   0.08648   0.59170   1.000
    C343    C    0.46270   0.58647   0.59170   1.000
    C344    C    0.96269   0.08648   0.59170   1.000
    C345    C    0.96269   0.58647   0.59170   1.000
    C346    C    0.07150   0.28841   0.71271   1.000
    C347    C    0.07150   0.78840   0.71271   1.000
    C348    C    0.57149   0.28841   0.71271   1.000
    C349    C    0.57149   0.78840   0.71271   1.000
    C350    C    0.24761   0.22523   0.30119   1.000
    C351    C    0.24762   0.72522   0.30119   1.000
    C352    C    0.74760   0.22523   0.30119   1.000
    C353    C    0.74760   0.72522   0.30119   1.000
    C354    C    0.12363   0.03753   0.25887   1.000
    C355    C    0.12363   0.53752   0.25887   1.000
    C356    C    0.62362   0.03753   0.25887   1.000
    C357    C    0.62362   0.53752   0.25887   1.000
    C358    C    0.21640   0.42723   0.37962   1.000
    C359    C    0.21640   0.92722   0.37962   1.000
    C360    C    0.71639   0.42723   0.37962   1.000
    C361    C    0.71639   0.92722   0.37962   1.000
    C362    C    0.08647   0.12369   0.42516   1.000
    C363    C    0.08647   0.62368   0.42516   1.000
    C364    C    0.58646   0.12369   0.42515   1.000
    C365    C    0.58647   0.62368   0.42516   1.000
    C366    C    0.28808   0.21616   0.54629   1.000
    C367    C    0.28808   0.71615   0.54629   1.000
    C368    C    0.78807   0.21616   0.54628   1.000
    C369    C    0.78807   0.71614   0.54629   1.000
    C370    C    0.22494   0.47807   0.13445   1.000
    C371    C    0.22494   0.97806   0.13445   1.000
    C372    C    0.72493   0.47807   0.13445   1.000
    C373    C    0.72493   0.97806   0.13445   1.000
    C374    C    0.03738   0.41363   0.09145   1.000
    C375    C    0.03738   0.91363   0.09145   1.000
    C376    C    0.53737   0.41364   0.09145   1.000
    C377    C    0.53737   0.91363   0.09145   1.000
    C378    C    0.42868   0.21161   0.21284   1.000
    C379    C    0.42868   0.71160   0.21284   1.000
    C380    C    0.92867   0.21161   0.21284   1.000
    C381    C    0.92867   0.71160   0.21284   1.000
    C382    C    0.25236   0.27478   0.80125   1.000
    C383    C    0.28355   0.57281   0.87953   1.000
    C384    C    0.78354   0.07282   0.87953   1.000
    C385    C    0.78354   0.57281   0.87953   1.000
    C386    C    0.22480   0.24722   0.69897   1.000
    C387    C    0.22480   0.74721   0.69897   1.000
    C388    C    0.72479   0.24722   0.69897   1.000
    C389    C    0.72479   0.74721   0.69897   1.000
    C390    C    0.03727   0.12349   0.74117   1.000
    C391    C    0.03727   0.62348   0.74117   1.000
    C392    C    0.53726   0.12349   0.74117   1.000
    C393    C    0.53726   0.62348   0.74117   1.000
    C394    C    0.42749   0.21664   0.62025   1.000
    C395    C    0.42750   0.71663   0.62025   1.000
    C396    C    0.92748   0.21664   0.62025   1.000
    C397    C    0.92749   0.71663   0.62025   1.000
    C398    C    0.25178   0.47808   0.03200   1.000
    C399    C    0.25178   0.97807   0.03202   1.000
    C400    C    0.75177   0.47808   0.03202   1.000
    C401    C    0.75177   0.97807   0.03202   1.000
    C402    C    0.37643   0.41373   0.07479   1.000
    C403    C    0.37643   0.91372   0.07479   1.000
    C404    C    0.87642   0.41373   0.07479   1.000
    C405    C    0.87642   0.91372   0.07479   1.000
    C406    C    0.28374   0.21158   0.95410   1.000
    C407    C    0.28374   0.71157   0.95410   1.000
    C408    C    0.78373   0.21158   0.95410   1.000
    C409    C    0.78373   0.71157   0.95410   1.000
    C410    C    0.08657   0.46262   0.40838   1.000
    C411    C    0.08657   0.96261   0.40838   1.000
    C412    C    0.58656   0.46262   0.40838   1.000
    C413    C    0.58656   0.96261   0.40838   1.000
    C414    C    0.28819   0.07147   0.28722   1.000
    C415    C    0.28819   0.57146   0.28722   1.000
    C416    C    0.78818   0.07147   0.28722   1.000
    C417    C    0.78818   0.57146   0.28722   1.000
    C418    C    0.27512   0.25265   0.19887   1.000
    C419    C    0.27512   0.75264   0.19887   1.000
    C420    C    0.77511   0.25265   0.19887   1.000
    C421    C    0.77511   0.75264   0.19887   1.000
    C422    C    0.46280   0.37644   0.24092   1.000
    C423    C    0.46280   0.87643   0.24092   1.000
    C424    C    0.96279   0.37644   0.24092   1.000
    C425    C    0.96279   0.87643   0.24092   1.000
    C426    C    0.07268   0.28349   0.12037   1.000
    C427    C    0.07268   0.78348   0.12037   1.000
    C428    C    0.57267   0.28349   0.12037   1.000
    C429    C    0.57267   0.78348   0.12037   1.000
    C430    C    0.12350   0.08607   0.57489   1.000
    C431    C    0.12350   0.58606   0.57489   1.000
    C432    C    0.62349   0.08607   0.57489   1.000
    C433    C    0.62349   0.58606   0.57489   1.000
    C434    C    0.21626   0.28831   0.45390   1.000
    C435    C    0.21626   0.78830   0.45390   1.000
    C436    C    0.71625   0.28831   0.45300   1.000
    C437    C    0.71625   0.78830   0.45390   1.000
    C438    C    0.47830   0.22516   0.86540   1.000
    C439    C    0.47830   0.72516   0.86540   1.000
    C440    C    0.97829   0.22516   0.86540   1.000
    C441    C    0.97829   0.72516   0.86540   1.000
    C442    C    0.41328   0.03724   0.90843   1.000
    C443    C    0.41328   0.53723   0.90843   1.000
    C444    C    0.91327   0.03724   0.90843   1.000
    C445    C    0.91327   0.53723   0.90843   1.000
    C446    C    0.21173   0.42860   0.78717   1.000
    C447    C    0.21173   0.92860   0.78717   1.000
    C448    C    0.71172   0.42861   0.78717   1.000
    C449    C    0.71172   0.92860   0.78717   1.000
    C450    C    0.01335   0.25626   0.91658   1.000
    C451    C    0.01335   0.75625   0.91658   1.000
    C452    C    0.51334   0.25626   0.91658   1.000
    C453    C    0.51334   0.75626   0.91658   1.000
    C454    C    0.08308   0.29139   0.91654   1.000
    C455    C    0.08308   0.79138   0.91654   1.000
    C456    C    0.58306   0.29139   0.91654   1.000
    C457    C    0.58307   0.79138   0.91654   1.000
    C458    C    0.24374   0.25648   0.24995   1.000
    C459    C    0.24374   0.75647   0.24995   1.000
    C460    C    0.74373   0.25648   0.24995   1.000
    C461    C    0.74373   0.75647   0.24995   1.000
    C462    C    0.20863   0.29139   0.24987   1.000
    C463    C    0.20863   0.79138   0.24987   1.000
    C464    C    0.70862   0.29139   0.24987   1.000
    C465    C    0.70862   0.79138   0.24987   1.000
    C466    C    0.75630   0.24360   0.75008   1.000
    C467    C    0.75630   0.74359   0.75008   1.000
    C468    C    0.29162   0.20889   0.74999   1.000
    C469    C    0.29162   0.70888   0.74999   1.000
    C470    C    0.79161   0.20889   0.74990   1.000
    C471    C    0.79161   0.70888   0.74999   1.000
    N472    N    0.44860   0.24783   0.01064   1.000
    N473    N    0.44860   0.74782   0.01064   1.000
    N474    N    0.94859   0.24783   0.01064   1.000
    N475    N    0.94859   0.74782   0.01064   1.000
    N476    N    0.25162   0.19971   0.34412   1.000
    N477    N    0.25163   0.69970   0.34412   1.000
    N478    N    0.75161   0.19971   0.34412   1.000
    N479    N    0.75161   0.69970   0.34412   1.000
    N480    N    0.19941   0.44847   0.17725   1.000
    N481    N    0.19941   0.94846   0.17725   1.000
    N482    N    0.69940   0.44847   0.17725   1.000
    N483    N    0.69940   0.94846   0.17725   1.000
    N484    N    0.24828   0.30027   0.84410   1.000
    N485    N    0.24828   0.80026   0.84410   1.000
    N486    N    0.74827   0.30027   0.84410   1.000
    N487    N    0.74827   0.80026   0.84410   1.000
    N488    N    0.19903   0.25099   0.65615   1.000
    N489    N    0.19903   0.75098   0.65615   1.000
    N490    N    0.69902   0.25099   0.65615   1.000
    N491    N    0.69902   0.75098   0.65615   1.000
    N492    N    0.24725   0.44846   0.98907   1.000
    N493    N    0.24725   0.94845   0.98907   1.000
    N494    N    0.74724   0.44846   0.98907   1.000
    N495    N    0.74725   0.94845   0.98907   1.000
    N496    N    0.30080   0.24863   0.15614   1.000
    N497    N    0.30080   0.74862   0.15614   1.000
    N498    N    0.80079   0.24863   0.15614   1.000
    N499    N    0.80079   0.74862   0.15614   1.000
    N500    N    0.44866   0.19972   0.82267   1.000
    N501    N    0.44866   0.69971   0.82260   1.000
    N502    N    0.94865   0.19972   0.82267   1.000
    N503    N    0.94865   0.69971   0.82267   1.000
    N504    N    0.14136   0.32077   0.91652   1.000
    N505    N    0.14136   0.82077   0.91652   1.000
    N506    N    0.64135   0.32078   0.91652   1.000
    N507    N    0.64135   0.82077   0.91652   1.000
    N508    N    0.17927   0.32056   0.24986   1.000
    N509    N    0.17927   0.82055   0.24986   1.000
    N510    N    0.67926   0.32056   0.24986   1.000
    N511    N    0.67926   0.82055   0.24986   1.000
    N512    N    0.32151   0.14140   0.08369   1.000
    N513    N    0.32151   0.64139   0.08369   1.000
    N514    N    0.82149   0.14140   0.08369   1.000
    N515    N    0.82149   0.64139   0.08369   1.000
    N516    N    0.32114   0.17987   0.74987   1.000
    N517    N    0.32114   0.67986   0.74987   1.000
    N518    N    0.82113   0.17987   0.74987   1.000
    N519    N    0.82113   0.67986   0.74987   1.000
    O520    O    0.35109   0.36439   0.94718   1.000
    O521    O    0.35109   0.86438   0.94718   1.000
    O522    O    0.85108   0.36439   0.94718   1.000
    O523    O    0.85108   0.86438   0.94718   1.000
    O524    O    0.25783   0.31957   0.00000   1.000
    O525    O    0.25782   0.81956   0.00000   1.000
    O526    O    0.75781   0.31957   0.00000   1.000
    O527    O    0.75781   0.81956   0.00000   1.000
    O528    O    0.01303   0.14868   0.61362   1.000
    O529    O    0.01303   0.64867   0.61362   1.000
    O530    O    0.51302   0.14868   0.61362   1.000
    O531    O    0.51302   0.64867   0.61362   1.000
    O532    O    0.06098   0.24239   0.66722   1.000
    O533    O    0.06098   0.74238   0.66722   1.000
    O534    O    0.56097   0.24239   0.66722   1.000
    O535    O    0.56097   0.74238   0.66722   1.000
    O536    O    0.13541   0.48680   0.28070   1.000
    O537    O    0.13541   0.98679   0.28070   1.000
    O538    O    0.63540   0.48680   0.28070   1.000
    O539    O    0.63540   0.98679   0.28070   1.000
    O540    O    0.18061   0.43791   0.33439   1.000
    O541    O    0.18061   0.93790   0.33439   1.000
    O542    O    0.68060   0.43791   0.33439   1.000
    O543    O    0.68060   0.93790   0.33439   1.000
    O544    O    0.14864   0.13534   0.44720   1.000
    O545    O    0.14864   0.63533   0.44720   1.000
    O546    O    0.64863   0.13533   0.44720   1.000
    O547    O    0.64863   0.63533   0.44720   1.000
    O548    O    0.24203   0.18028   0.50103   1.000
    O549    O    0.24203   0.68027   0.50103   1.000
    O550    O    0.74202   0.18028   0.50102   1.000
    O551    O    0.74202   0.68026   0.50104   1.000
    O552    O    0.48718   0.35129   0.11334   1.000
    O553    O    0.48718   0.85128   0.11334   1.000
    O554    O    0.98717   0.35129   0.11334   1.000
    O555    O    0.98717   0.85128   0.11334   1.000
    O556    O    0.43916   0.25769   0.16700   1.000
    O557    O    0.43916   0.75768   0.16700   1.000
    O558    O    0.93915   0.25769   0.16700   1.000
    O559    O    0.93915   0.75768   0.16700   1.000
    O560    O    0.36457   0.01336   0.78088   1.000
    O561    O    0.36457   0.51335   0.78088   1.000
    O562    O    0.86456   0.01336   0.78088   1.000
    O563    O    0.86456   0.51335   0.78088   1.000
    O564    O    0.31913   0.06208   0.83423   1.000
    O565    O    0.31913   0.56207   0.83423   1.000
    O566    O    0.81912   0.06208   0.83423   1.000
    O567    O    0.81912   0.56207   0.83423   1.000
    O568    O    0.48673   0.13545   0.71935   1.000
    O569    O    0.48673   0.63544   0.71935   1.000
    O570    O    0.98672   0.13545   0.71935   1.000
    O571    O    0.98672   0.63544   0.71935   1.000
    O572    O    0.43809   0.18080   0.66555   1.000
    O573    O    0.43809   0.68079   0.66555   1.000
    O574    O    0.93808   0.18080   0.66555   1.000
    O575    O    0.93808   0.68079   0.66555   1.000
    O576    O    0.36489   0.35150   0.05270   1.000
    O577    O    0.36488   0.85149   0.05270   1.000
    O578    O    0.86487   0.35150   0.05270   1.000
    O579    O    0.86487   0.85149   0.05270   1.000
    O580    O    0.31919   0.25753   0.99959   1.000
    O581    O    0.31919   0.75752   0.99950   1.000
    O582    O    0.81918   0.25753   0.99958   1.000
    O583    O    0.81918   0.75752   0.99958   1.000
    O584    O    0.14873   0.01301   0.38648   1.000
    O585    O    0.14873   0.51300   0.38648   1.000
    O586    O    0.64872   0.01301   0.38648   1.000
    O587    O    0.64872   0.51301   0.38648   1.000
    O588    O    0.24221   0.06104   0.33269   1.000
    O589    O    0.24221   0.56103   0.33269   1.000
    O590    O    0.74220   0.06104   0.33269   1.000
    O591    O    0.74220   0.56103   0.33269   1.000
    O592    O    0.01345   0.36472   0.21909   1.000
    O593    O    0.01345   0.86471   0.21909   1.000
    O594    O    0.51344   0.36472   0.21909   1.000
    O595    O    0.51344   0.86471   0.21909   1.000
    O596    O    0.06204   0.31920   0.16564   1.000
    O597    O    0.06204   0.81919   0.16564   1.000
    O598    O    0.56203   0.31920   0.16564   1.000
    O599    O    0.56203   0.81919   0.16564   1.000
    O600    O    0.13506   0.14831   0.55270   1.000
    O601    O    0.13506   0.64830   0.55277   1.000
    O602    O    0.63505   0.14832   0.55270   1.000
    O603    O    0.63504   0.64830   0.55277   1.000
    O604    O    0.18059   0.24224   0.49930   1.000
    O605    O    0.18060   0.74223   0.49931   1.000
    O606    O    0.68058   0.24224   0.49930   1.000
    O607    O    0.68059   0.74223   0.49931   1.000
    O608    O    0.35102   0.48700   0.88664   1.000
    O609    O    0.35102   0.98699   0.88664   1.000
    O610    O    0.85101   0.48700   0.88664   1.000
    O611    O    0.85101   0.98699   0.88664   1.000
    O612    O    0.25766   0.43897   0.83269   1.000
    O613    O    0.25766   0.93896   0.83269   1.000
    O614    O    0.75765   0.43897   0.83269   1.000
    O615    O    0.75765   0.93896   0.83269   1.000
loop_
    _geom_bond_atom_site_label_1
    _geom_bond_atom_site_label_2
    _geom_bond_distance
    _geom_bond_site_symmetry_2
    _ccdc_geom_bond_type
    O527   B3        1.47616      .   S
    O527   C341      1.44125      .   S
    O524   B0        1.47615      .   S
    O524   C338      1.44131      .   S
    B2     O526      1.47616      .   S
    B2     O578      1.47798      .   S
    B2     O522      1.47272  1_554   S
    B2     O582      1.47630  1_554   S
    O526   C340      1.44126      .   S
    B1     O525      1.47614      .   S
    B1     O577      1.47799      .   S
    B1     O521      1.47271  1_554   S
    B1     O581      1.47633  1_554   S
    O525   C339      1.44127      .   S
    B3     O579      1.47417      .   S
    B3     O523      1.47640  1_554   S
    B3     O583      1.47649  1_554   S
    B0     O576      1.47423      .   S
    B0     O520      1.47635  1_554   S
    B0     O580      1.47647  1_554   S
    N473   C331      1.17266  1_554   S
    N472   C330      1.17265  1_554   S
    N474   C332      1.17265  1_554   S
    N475   C333      1.17265  1_554   S
    H36    C338      1.09765      .   S
    H37    C339      1.09768      .   S
    H38    C340      1.09768      .   S
    H39    C341      1.09768      .   S
    C398   C246      1.40254      .   S
    C398   N492      1.17260  1_554   S
    C401   C247      1.40241  1_565   S
    C401   N495      1.17300  1_554   S
    C400   C248      1.40216      .   S
    C400   N494      1.17299  1_554   S
    C399   C245      1.40260  1_565   S
    C399   N493      1.17299  1_554   S
    H213   C402      1.10362      .   S
    H216   C405      1.10280      .   S
    H215   C404      1.10280      .   S
    H214   C403      1.10282      .   S
    C339   H45       1.10075      .   S
    C339   H41       1.10262      .   S
    C341   H47       1.10072      .   S
    C341   H43       1.10265      .   S
    C338   H44       1.10075      .   S
    C338   H40       1.10279      .   S
    C340   H46       1.10072      .   S
    C340   H42       1.10264      .   S
    O579   C405      1.42061      .   S
    O578   C404      1.42061      .   S
    O577   C403      1.42059      .   S
    O576   C402      1.42059      .   S
    H131   C376      1.09794      .   S
    H129   C374      1.09793      .   S
    H130   C375      1.09793      .   S
    H132   C377      1.09795      .   S
    C405   H212      1.10249      .   S
    C405   H208      1.08084      .   S
    C404   H211      1.10248      .   S
    C404   H207      1.08084      .   S
    C403   H210      1.10248      .   S
    C403   H206      1.09799      .   S
    C402   H209      1.10248      .   S
    C402   H205      1.09799      .   S
    H135   C376      1.10249      .   S
    H136   C377      1.10246      .   S
    H134   C375      1.10249      .   S
    H133   C374      1.10247      .   S
    H277   C429      1.10262      .   S
    H276   C428      1.10262      .   S
    H275   C427      1.10262      .   S
    H274   C426      1.10261      .   S
    C248   C252      1.40250      .   S
    C248   C372      1.40259      .   S
    C246   C250      1.40250      .   S
    C246   C370      1.40259      .   S
    C247   C251      1.40248      .   S
    C247   C373      1.40273  1_545   S
    C245   C249      1.40248      .   S
    C245   C371      1.40253  1_545   S
    C251   N514      1.17236      .   S
    C252   N515      1.17234      .   S
    C250   N513      1.17234      .   S
    C249   N512      1.17236      .   S
    C374   O554      1.42022  1_455   S
    C374   H137      1.10284      .   S
    C375   O555      1.42022  1_455   S
    C375   H138      1.10283      .   S
    C376   O552      1.42008      .   S
    C376   H139      1.10283      .   S
    C377   O553      1.42007      .   S
    C377   H140      1.10283      .   S
    H278   C426      1.10073      .   S
    H279   C427      1.10074      .   S
    H280   C428      1.10074      .   S
    H281   C429      1.10073      .   S
    O552   B18       1.47688      .   S
    O553   B19       1.47688      .   S
    O554   B16       1.47708  1_655   S
    O555   B17       1.47709  1_655   S
    C426   H270      1.09778      .   S
    C426   O596      1.42145      .   S
    C429   H273      1.09778      .   S
    C429   O599      1.42145      .   S
    C428   H272      1.09776      .   S
    C428   O598      1.42145      .   S
    C427   H271      1.09776      .   S
    C427   O597      1.42145      .   S
    C372   N482      1.17223      .   S
    C370   N480      1.17224      .   S
    C371   N481      1.17224      .   S
    C373   N483      1.17223      .   S
    N497   C419      1.17223      .   S
    N498   C420      1.17223      .   S
    N496   C418      1.17222      .   S
    N499   C421      1.17222      .   S
    O597   B17       1.47568      .   S
    O596   B16       1.47566      .   S
    O599   B19       1.47566      .   S
    O598   B18       1.47566      .   S
    B19    O557      1.47618      .   S
    B19    O595      1.47718      .   S
    B18    O556      1.47619      .   S
    B18    O594      1.47718      .   S
    B17    O559      1.47640  1_455   S
    B17    O593      1.47718      .   S
    B16    O558      1.47640  1_455   S
    B16    O592      1.47718      .   S
    O559   C381      1.42659      .   S
    O556   C378      1.42659      .   S
    O557   C379      1.42658      .   S
    O558   C380      1.42659      .   S
    H144   C381      1.09776      .   S
    H143   C380      1.09776      .   S
    H142   C379      1.09775      .   S
    H141   C378      1.09775      .   S
    C418   C458      1.40259      .   S
    C419   C459      1.40258      .   S
    C420   C460      1.40259      .   S
    C421   C461      1.40259      .   S
    H266   C422      1.10271      .   S
    H267   C423      1.10271      .   S
    H268   C424      1.10271      .   S
    H269   C425      1.10271      .   S
    C378   H149      1.10073      .   S
    C378   H145      1.10269      .   S
    C379   H150      1.10073      .   S
    C379   H146      1.10269      .   S
    C380   H151      1.10073      .   S
    C380   H147      1.10270      .   S
    C381   H152      1.10073      .   S
    C381   H148      1.10271      .   S
    O595   C423      1.42016      .   S
    O592   C424      1.42063  1_455   S
    O593   C425      1.42065  1_455   S
    O594   C422      1.42018      .   S
    H72    C354      1.09805      .   S
    H75    C357      1.09803      .   S
    H73    C355      1.09805      .   S
    H74    C356      1.09803      .   S
    C422   H262      1.10238      .   S
    C422   H258      1.09791      .   S
    C423   H263      1.10239      .   S
    C423   H259      1.09791      .   S
    C424   H264      1.10238      .   S
    C424   H260      1.09791      .   S
    C425   H265      1.10240      .   S
    C425   H261      1.09790      .   S
    H83    C357      1.10240      .   S
    H80    C354      1.10240      .   S
    H81    C355      1.10240      .   S
    H82    C356      1.10240      .   S
    H111   C417      1.10276      .   S
    H110   C416      1.10276      .   S
    H109   C415      1.10276      .   S
    H108   C414      1.10275      .   S
    N508   C462      1.17234      .   S
    N509   C463      1.17232      .   S
    N510   C464      1.17234      .   S
    N511   C465      1.17232      .   S
    C465   C461      1.40247      .   S
    C462   C458      1.40245      .   S
    C464   C460      1.40245      .   S
    C463   C459      1.40247      .   S
    C458   C350      1.40231      .   S
    C461   C353      1.40231      .   S
    C460   C352      1.40231      .   S
    C459   C351      1.40231      .   S
    C354   O537      1.42052  1_545   S
    C354   H84       1.10265      .   S
    C355   O536      1.42008      .   S
    C355   H85       1.10263      .   S
    C356   O539      1.42054  1_545   S
    C356   H86       1.10263      .   S
    C357   O538      1.42010      .   S
    C357   H87       1.10262      .   S
    H112   C414      1.10112      .   S
    H256   C416      1.10113      .   S
    H257   C417      1.10076      .   S
    H255   C415      1.10075      .   S
    O537   B8        1.47770      .   S
    O538   B11       1.47777      .   S
    O539   B10       1.47771      .   S
    O536   B9        1.47779      .   S
    C417   H244      1.09772      .   S
    C417   O591      1.42154      .   S
    C416   H243      1.09772      .   S
    C416   O590      1.42154      .   S
    C415   H242      1.09772      .   S
    C415   O589      1.42154      .   S
    C414   H241      1.09772      .   S
    C414   O588      1.42152      .   S
    C350   N476      1.17232      .   S
    C351   N477      1.17232      .   S
    C352   N478      1.17233      .   S
    C353   N479      1.17231      .   S
    O589   B9        1.47607      .   S
    O590   B10       1.47607  1_545   S
    O591   B11       1.47607      .   S
    O588   B8        1.47609  1_545   S
    B11    O542      1.47622      .   S
    B11    O587      1.47668      .   S
    B10    O543      1.47671      .   S
    B10    O586      1.47667  1_565   S
    B9     O540      1.47621      .   S
    B9     O585      1.47669      .   S
    B8     O541      1.47668      .   S
    B8     O584      1.47668  1_565   S
    O540   C358      1.42166      .   S
    O541   C359      1.42166      .   S
    O542   C360      1.42166      .   S
    O543   C361      1.42163      .   S
    H89    C359      1.09776      .   S
    H88    C358      1.09776      .   S
    H90    C360      1.09778      .   S
    H91    C361      1.09779      .   S
    H239   C412      1.10272      .   S
    H238   C411      1.10270      .   S
    H237   C410      1.10272      .   S
    H240   C413      1.10272      .   S
    C361   H99       1.10067      .   S
    C361   H95       1.10260      .   S
    C360   H98       1.10067      .   S
    C360   H94       1.10260      .   S
    C359   H97       1.10067      .   S
    C359   H93       1.10260      .   S
    C358   H96       1.10067      .   S
    C358   H92       1.10260      .   S
    O584   C411      1.42014  1_545   S
    O585   C410      1.42003      .   S
    O586   C413      1.42013  1_545   S
    O587   C412      1.42003      .   S
    H100   C362      1.09805      .   S
    H101   C363      1.09805      .   S
    H102   C364      1.09786      .   S
    H103   C365      1.09787      .   S
    C413   H236      1.10247      .   S
    C413   H232      1.09790      .   S
    C412   H235      1.10248      .   S
    C412   H231      1.09790      .   S
    C411   H234      1.10248      .   S
    C411   H230      1.09790      .   S
    C410   H233      1.10248      .   S
    C410   H229      1.09789      .   S
    H106   C364      1.10269      .   S
    H104   C362      1.10253      .   S
    H105   C363      1.10254      .   S
    H107   C365      1.10254      .   S
    H299   C435      1.10335      .   S
    H300   C436      1.08569      .   S
    H298   C434      1.10276      .   S
    H301   C437      1.10260      .   S
    C364   O546      1.41999      .   S
    C364   H115      1.10156      .   S
    C362   O544      1.41993      .   S
    C362   H113      1.10268      .   S
    C363   O545      1.41994      .   S
    C363   H114      1.10267      .   S
    C365   O547      1.41993      .   S
    C365   H116      1.10267      .   S
    H302   C434      1.10081      .   S
    H303   C435      1.10081      .   S
    H304   C436      1.09649      .   S
    H305   C437      1.10075      .   S
    O544   B12       1.47592      .   S
    O545   B13       1.47591      .   S
    O546   B14       1.47596      .   S
    O547   B15       1.47586      .   S
    C436   H296      1.10424      .   S
    C436   O606      1.43676      .   S
    C434   H294      1.09761      .   S
    C434   O604      1.42165      .   S
    C435   H295      1.09769      .   S
    C435   O605      1.42179      .   S
    C437   H297      1.09769      .   S
    C437   O607      1.42175      .   S
    O606   B14       1.47666      .   S
    O604   B12       1.47667      .   S
    O607   B15       1.47667      .   S
    O605   B13       1.47666      .   S
    B14    O550      1.47637      .   S
    B14    O602      1.47469      .   S
    B15    O551      1.47637      .   S
    B15    O603      1.47611      .   S
    B13    O549      1.47635      .   S
    B13    O601      1.47608      .   S
    B12    O548      1.47636      .   S
    B12    O600      1.47472      .   S
    O550   C368      1.42156      .   S
    O548   C366      1.42160      .   S
    O549   C367      1.42162      .   S
    O551   C369      1.42149      .   S
    H119   C368      1.09766      .   S
    H118   C367      1.09771      .   S
    H117   C366      1.09771      .   S
    H120   C369      1.09764      .   S
    H290   C430      1.10312      .   S
    H292   C432      1.10279      .   S
    H293   C433      1.10265      .   S
    H291   C431      1.10265      .   S
    C368   H127      1.10081      .   S
    C368   H123      1.10280      .   S
    C366   H125      1.10078      .   S
    C366   H121      1.10257      .   S
    C367   H126      1.10078      .   S
    C367   H122      1.10274      .   S
    C369   H128      1.10080      .   S
    C369   H124      1.10271      .   S
    O600   C430      1.42056      .   S
    O602   C432      1.42057      .   S
    O601   C431      1.41999      .   S
    O603   C433      1.41998      .   S
    H49    C343      1.09786      .   S
    H51    C345      1.09786      .   S
    H50    C344      1.09788      .   S
    H48    C342      1.09785      .   S
    C430   H286      1.10249      .   S
    C430   H282      1.09790      .   S
    C433   H289      1.10247      .   S
    C433   H285      1.09771      .   S
    C432   H288      1.10247      .   S
    C432   H284      1.09790      .   S
    C431   H287      1.10248      .   S
    C431   H283      1.09790      .   S
    H55    C345      1.10249      .   S
    H54    C344      1.10249      .   S
    H53    C343      1.10250      .   S
    H52    C342      1.10250      .   S
    H198   C395      1.10266      .   S
    H199   C396      1.10267      .   S
    H200   C397      1.10267      .   S
    H197   C394      1.10266      .   S
    C342   O530      1.42002      .   S
    C342   H56       1.10272      .   S
    C343   O531      1.42002      .   S
    C343   H57       1.10272      .   S
    C344   O528      1.42018  1_655   S
    C344   H58       1.10272      .   S
    C345   O529      1.42018  1_655   S
    C345   H59       1.10272      .   S
    H201   C394      1.10066      .   S
    H204   C397      1.10066      .   S
    H203   C396      1.10066      .   S
    H202   C395      1.10067      .   S
    O531   B7        1.47675      .   S
    O530   B6        1.47582      .   S
    O529   B5        1.47675  1_455   S
    O528   B4        1.47674  1_455   S
    C397   H196      1.09785      .   S
    C397   O575      1.42172      .   S
    C396   H195      1.09783      .   S
    C396   O574      1.42172      .   S
    C395   H194      1.09787      .   S
    C395   O573      1.42170      .   S
    C394   H193      1.09783      .   S
    C394   O572      1.42173      .   S
    N488   C386      1.17233      .   S
    N489   C387      1.17233      .   S
    N490   C388      1.17233      .   S
    N491   C389      1.17232      .   S
    O575   B5        1.47660      .   S
    O574   B4        1.47660      .   S
    O573   B7        1.47609      .   S
    O572   B6        1.47608      .   S
    B6     O534      1.47587      .   S
    B6     O568      1.47812      .   S
    B7     O535      1.47586      .   S
    B7     O569      1.47719      .   S
    B5     O533      1.47587  1_655   S
    B5     O571      1.47713      .   S
    B4     O532      1.47585  1_655   S
    B4     O570      1.47714      .   S
    O533   C347      1.42140      .   S
    O532   C346      1.42140      .   S
    O534   C348      1.42142      .   S
    O535   C349      1.42142      .   S
    H63    C349      1.09772      .   S
    H62    C348      1.09772      .   S
    H61    C347      1.09772      .   S
    H60    C346      1.09772      .   S
    C386   C253      1.40233      .   S
    C387   C254      1.40233      .   S
    C388   C466      1.40233      .   S
    C389   C467      1.40235      .   S
    H192   C393      1.10265      .   S
    H77    C390      1.10265      .   S
    H79    C392      1.10266      .   S
    H78    C391      1.10264      .   S
    C349   H71       1.10075      .   S
    C349   H67       1.10278      .   S
    C346   H68       1.10076      .   S
    C346   H64       1.10278      .   S
    C347   H69       1.10077      .   S
    C347   H65       1.10277      .   S
    C348   H70       1.10077      .   S
    C348   H66       1.10277      .   S
    O569   C393      1.42027      .   S
    O568   C392      1.42027      .   S
    O570   C390      1.42073  1_655   S
    O571   C391      1.42072  1_655   S
    H153   C187      1.09783      .   S
    H154   C188      1.09782      .   S
    H155   C189      1.09782      .   S
    H156   C190      1.09783      .   S
    C391   H182      1.10240      .   S
    C391   H178      1.09795      .   S
    C390   H181      1.10240      .   S
    C390   H177      1.09796      .   S
    C393   H76       1.10241      .   S
    C393   H180      1.09795      .   S
    C392   H183      1.10240      .   S
    C392   H179      1.09795      .   S
    H158   C188      1.10237      .   S
    H159   C189      1.10237      .   S
    H160   C190      1.10237      .   S
    H157   C187      1.10236      .   S
    H325   C449      1.10301      .   S
    H323   C447      1.10264      .   S
    H322   C446      1.10264      .   S
    H324   C448      1.10265      .   S
    N518   C470      1.17230      .   S
    N519   C471      1.17230      .   S
    N517   C469      1.17232      .   S
    N516   C468      1.17230      .   S
    C470   C466      1.40247      .   S
    C468   C253      1.40246      .   S
    C469   C254      1.40244      .   S
    C471   C467      1.40242      .   S
    C467   C186      1.40245      .   S
    C254   C184      1.40245      .   S
    C253   C382      1.40245      .   S
    C466   C185      1.40245      .   S
    C189   O563      1.42023      .   S
    C189   H163      1.10142      .   S
    C188   O560      1.42066  1_565   S
    C188   H162      1.10140      .   S
    C187   O561      1.42021      .   S
    C187   H161      1.10142      .   S
    C190   O562      1.42066  1_565   S
    C190   H164      1.10143      .   S
    H329   C449      1.10078      .   S
    H326   C446      1.10076      .   S
    H327   C447      1.10077      .   S
    H328   C448      1.10076      .   S
    O560   B20       1.47709      .   S
    O563   B23       1.47707      .   S
    O562   B22       1.47707      .   S
    O561   B21       1.47709      .   S
    C447   H319      1.09773      .   S
    C447   O613      1.42151      .   S
    C448   H320      1.09774      .   S
    C448   O614      1.42150      .   S
    C449   H321      1.09773      .   S
    C449   O615      1.42151      .   S
    C446   H318      1.09773      .   S
    C446   O612      1.42151      .   S
    C382   N484      1.17237      .   S
    C184   N485      1.17237      .   S
    C185   N486      1.17237      .   S
    C186   N487      1.17238      .   S
    N501   C439      1.17306      .   S
    N500   C438      1.17172      .   S
    N502   C440      1.17172      .   S
    N503   C441      1.17172      .   S
    O615   B22       1.47624  1_565   S
    O612   B21       1.47607      .   S
    O613   B20       1.47624  1_565   S
    O614   B23       1.47608      .   S
    B23    O567      1.47600      .   S
    B23    O610      1.47684      .   S
    B22    O566      1.47600      .   S
    B22    O611      1.47706  1_545   S
    B21    O565      1.47600      .   S
    B21    O608      1.47685      .   S
    B20    O564      1.47600      .   S
    B20    O609      1.47706  1_545   S
    O564   C191      1.42145      .   S
    O565   C383      1.42146      .   S
    O566   C384      1.42146      .   S
    O567   C385      1.42146      .   S
    H166   C383      1.09779      .   S
    H165   C191      1.09779      .   S
    H167   C384      1.09779      .   S
    H168   C385      1.09781      .   S
    C438   C452      1.40308      .   S
    C439   C453      1.40309      .   S
    C440   C450      1.40325  1_655   S
    C441   C451      1.40323  1_655   S
    H316   C444      1.10276      .   S
    H317   C445      1.10276      .   S
    H315   C443      1.10276      .   S
    H314   C442      1.10277      .   S
    C385   H176      1.10072      .   S
    C385   H172      1.10262      .   S
    C191   H173      1.10072      .   S
    C191   H169      1.10262      .   S
    C383   H174      1.10072      .   S
    C383   H170      1.10262      .   S
    C384   H175      1.10073      .   S
    C384   H171      1.10261      .   S
    O611   C444      1.42002  1_565   S
    O610   C445      1.41993      .   S
    O609   C442      1.42002  1_565   S
    O608   C443      1.41992      .   S
    H25    C335      1.09803      .   S
    H26    C336      1.09802      .   S
    H27    C337      1.09802      .   S
    H24    C334      1.09786      .   S
    C442   H310      1.10249      .   S
    C442   H306      1.09805      .   S
    C445   H313      1.10248      .   S
    C445   H309      1.09805      .   S
    C444   H312      1.10250      .   S
    C444   H308      1.09804      .   S
    C443   H311      1.10251      .   S
    C443   H307      1.09804      .   S
    H28    C334      1.10262      .   S
    H31    C337      1.10256      .   S
    H30    C336      1.10255      .   S
    H29    C335      1.10254      .   S
    H221   C406      1.10266      .   S
    H222   C407      1.10265      .   S
    H223   C408      1.10264      .   S
    H224   C409      1.10264      .   S
    N506   C456      1.17239      .   S
    N505   C455      1.17239      .   S
    N504   C454      1.17239      .   S
    N507   C457      1.17239      .   S
    C454   C450      1.40251      .   S
    C455   C451      1.40253      .   S
    C456   C452      1.40251      .   S
    C457   C453      1.40251      .   S
    C451   C333      1.40284  1_455   S
    C453   C331      1.40257      .   S
    C452   C330      1.40258      .   S
    C450   C332      1.40285  1_455   S
    C334   O520      1.41991      .   S
    C334   H32       1.10276      .   S
    C335   O521      1.41993      .   S
    C335   H33       1.10130      .   S
    C336   O522      1.41993      .   S
    C336   H34       1.10260      .   S
    C337   O523      1.41993      .   S
    C337   H35       1.10260      .   S
    H225   C406      1.10078      .   S
    H226   C407      1.10081      .   S
    H227   C408      1.10081      .   S
    H228   C409      1.10081      .   S
    C409   H220      1.09769      .   S
    C409   O583      1.42189      .   S
    C406   H217      1.09769      .   S
    C406   O580      1.42203      .   S
    C407   H218      1.09769      .   S
    C407   O581      1.42054      .   S
    C408   H219      1.09767      .   S
    C408   O582      1.42189      .   S
