# CIF file generated by openbabel 2.4.90, see http://openbabel.sf.net
data_I
_chemical_name_common ''
_cell_length_a 23.173
_cell_length_b 23.132
_cell_length_c 22.876
_cell_angle_alpha 89.923
_cell_angle_beta 90.038
_cell_angle_gamma 119.768
_space_group_name_H-M_alt 'P 1'
_space_group_name_Hall 'P 1'
loop_
    _symmetry_equiv_pos_as_xyz
    x,y,z
loop_
    _atom_site_label
    _atom_site_type_symbol
    _atom_site_fract_x
    _atom_site_fract_y
    _atom_site_fract_z
    _atom_site_occupancy
    N0      N    0.99974   0.67855   0.66646   1.000
    N1      N    0.17837   0.17835   0.50005   1.000
    N2      N    0.17837   0.67834   0.50006   1.000
    N3      N    0.67836   0.17835   0.50001   1.000
    N4      N    0.67836   0.67834   0.50006   1.000
    N5      N    0.32152   0.82149   0.00007   1.000
    N6      N    0.24383   0.25638   0.25000   1.000
    N7      N    0.24383   0.75637   0.25000   1.000
    N8      N    0.74382   0.25638   0.25000   1.000
    N9      N    0.74382   0.75637   0.25000   1.000
    N10     N    0.25611   0.01295   0.08333   1.000
    N11     N    0.25611   0.51295   0.08332   1.000
    N12     N    0.75610   0.01295   0.08333   1.000
    N13     N    0.75610   0.51295   0.08333   1.000
    N14     N    0.32152   0.32150   0.00008   1.000
    N15     N    0.82151   0.32150   0.00003   1.000
    N16     N    0.82151   0.82149   0.00004   1.000
    N17     N    0.32141   0.00033   0.83355   1.000
    N18     N    0.32141   0.50033   0.83355   1.000
    N19     N    0.82140   0.00033   0.83355   1.000
    N20     N    0.82140   0.50033   0.83355   1.000
    N21     N    0.17849   0.99971   0.33352   1.000
    N22     N    0.67848   0.49971   0.33352   1.000
    N23     N    0.67848   0.99970   0.33352   1.000
    N24     N    0.50039   0.32149   0.16638   1.000
    N25     N    0.50039   0.82148   0.16638   1.000
    N26     N    0.00039   0.32149   0.16638   1.000
    N27     N    0.00039   0.82148   0.16638   1.000
    N28     N    0.25622   0.74365   0.75006   1.000
    N29     N    0.51308   0.25618   0.91659   1.000
    N30     N    0.51308   0.75617   0.91658   1.000
    N31     N    0.01307   0.25618   0.91659   1.000
    N32     N    0.01308   0.75617   0.91659   1.000
    N33     N    0.49973   0.17856   0.66646   1.000
    N34     N    0.49973   0.67855   0.66646   1.000
    N35     N    0.99973   0.17856   0.66646   1.000
    N36     N    0.17849   0.49970   0.33352   1.000
    N37     N    0.25622   0.24366   0.75006   1.000
    N38     N    0.75621   0.24366   0.75005   1.000
    N39     N    0.75621   0.74365   0.75006   1.000
    Zr40    Zr   0.38118   0.76123   0.08330   1.000
    O41     O    0.42258   0.75829   0.03254   1.000
    O42     O    0.34245   0.68418   0.08335   1.000
    Zr43    Zr   0.73875   0.61902   0.41682   1.000
    O44     O    0.74163   0.66344   0.36603   1.000
    Zr45    Zr   0.11890   0.73863   0.58321   1.000
    O46     O    0.16325   0.74143   0.63404   1.000
    Zr47    Zr   0.88117   0.76123   0.08330   1.000
    O48     O    0.92257   0.75829   0.03254   1.000
    O49     O    0.84244   0.68418   0.08336   1.000
    Zr50    Zr   0.38079   0.11952   0.74997   1.000
    O51     O    0.42234   0.16371   0.80071   1.000
    O52     O    0.34219   0.15810   0.74998   1.000
    Zr53    Zr   0.38118   0.26124   0.08330   1.000
    O54     O    0.34245   0.18419   0.08336   1.000
    O55     O    0.42258   0.25830   0.03254   1.000
    Zr56    Zr   0.26104   0.38083   0.91680   1.000
    O57     O    0.25824   0.33647   0.86603   1.000
    O58     O    0.25808   0.42231   0.96746   1.000
    Zr59    Zr   0.11929   0.38063   0.25002   1.000
    O60     O    0.16351   0.42219   0.19925   1.000
    O61     O    0.15792   0.34206   0.25000   1.000
    Zr62    Zr   0.88078   0.61951   0.74997   1.000
    O63     O    0.84218   0.65809   0.74998   1.000
    O64     O    0.92234   0.66370   0.80071   1.000
    Zr65    Zr   0.88078   0.11952   0.74997   1.000
    O66     O    0.84218   0.15810   0.74998   1.000
    O67     O    0.92233   0.16371   0.80071   1.000
    Zr68    Zr   0.23876   0.11903   0.41682   1.000
    O69     O    0.24164   0.16345   0.36603   1.000
    Zr70    Zr   0.26104   0.88082   0.91684   1.000
    O71     O    0.25809   0.92231   0.96749   1.000
    O72     O    0.25824   0.83646   0.86605   1.000
    Zr73    Zr   0.88117   0.26124   0.08330   1.000
    O74     O    0.84244   0.18419   0.08336   1.000
    O75     O    0.92257   0.25830   0.03254   1.000
    Zr76    Zr   0.61889   0.23864   0.58320   1.000
    O77     O    0.66324   0.24144   0.63403   1.000
    Zr78    Zr   0.11929   0.88062   0.25002   1.000
    O79     O    0.15792   0.84205   0.25000   1.000
    O80     O    0.16351   0.92218   0.19925   1.000
    Zr81    Zr   0.61889   0.73863   0.58321   1.000
    O82     O    0.66324   0.74143   0.63404   1.000
    Zr83    Zr   0.76103   0.88082   0.91684   1.000
    O84     O    0.75823   0.83646   0.86605   1.000
    O85     O    0.75808   0.92231   0.96749   1.000
    Zr86    Zr   0.76103   0.38083   0.91684   1.000
    O87     O    0.75823   0.33647   0.86605   1.000
    O88     O    0.75807   0.42231   0.96749   1.000
    Zr89    Zr   0.38079   0.61951   0.74997   1.000
    O90     O    0.42234   0.66370   0.80070   1.000
    O91     O    0.34219   0.65809   0.74998   1.000
    Zr92    Zr   0.73875   0.11903   0.41682   1.000
    O93     O    0.74163   0.16345   0.36603   1.000
    Zr94    Zr   0.11890   0.23864   0.58320   1.000
    O95     O    0.16325   0.24144   0.63403   1.000
    Zr96    Zr   0.23876   0.61902   0.41682   1.000
    O97     O    0.24164   0.66344   0.36603   1.000
    Zr98    Zr   0.61928   0.38063   0.25002   1.000
    O99     O    0.66350   0.42219   0.19925   1.000
    O100    O    0.65791   0.34206   0.25000   1.000
    Zr101   Zr   0.61928   0.88062   0.25002   1.000
    O102    O    0.65791   0.84205   0.25000   1.000
    O103    O    0.66350   0.92218   0.19925   1.000
    O104    O    0.42123   0.28171   0.11118   1.000
    O105    O    0.36137   0.28172   0.05535   1.000
    O106    O    0.71827   0.57894   0.38884   1.000
    O107    O    0.63892   0.42062   0.27809   1.000
    O108    O    0.21828   0.07895   0.38884   1.000
    O109    O    0.13893   0.92061   0.27809   1.000
    O110    O    0.71827   0.07895   0.38884   1.000
    O111    O    0.63892   0.92061   0.27809   1.000
    O112    O    0.78154   0.42097   0.88887   1.000
    O113    O    0.86107   0.57949   0.77806   1.000
    O114    O    0.92122   0.78170   0.11118   1.000
    O115    O    0.07937   0.86100   0.22190   1.000
    O116    O    0.86107   0.07950   0.77806   1.000
    O117    O    0.92072   0.13910   0.72190   1.000
    O118    O    0.07937   0.36101   0.22190   1.000
    O119    O    0.92122   0.28171   0.11118   1.000
    O120    O    0.78154   0.92097   0.88887   1.000
    O121    O    0.21824   0.13871   0.44479   1.000
    O122    O    0.28155   0.42097   0.88885   1.000
    O123    O    0.36108   0.57949   0.77806   1.000
    O124    O    0.71823   0.63870   0.44479   1.000
    O125    O    0.57936   0.36101   0.22190   1.000
    O126    O    0.57887   0.21823   0.61117   1.000
    O127    O    0.63862   0.21814   0.55525   1.000
    O128    O    0.07887   0.21823   0.61117   1.000
    O129    O    0.86136   0.78171   0.05534   1.000
    O130    O    0.13864   0.71813   0.55528   1.000
    O131    O    0.07887   0.71822   0.61117   1.000
    O132    O    0.21824   0.63870   0.44479   1.000
    O133    O    0.57936   0.86100   0.22190   1.000
    O134    O    0.42123   0.78170   0.11118   1.000
    O135    O    0.63863   0.71813   0.55528   1.000
    O136    O    0.28159   0.86113   0.94474   1.000
    O137    O    0.36137   0.78171   0.05534   1.000
    O138    O    0.42073   0.13910   0.72190   1.000
    O139    O    0.28159   0.36114   0.94472   1.000
    O140    O    0.78158   0.36114   0.94473   1.000
    O141    O    0.86136   0.28172   0.05534   1.000
    O142    O    0.71823   0.13871   0.44478   1.000
    O143    O    0.78158   0.86113   0.94473   1.000
    O144    O    0.92072   0.63909   0.72190   1.000
    O145    O    0.13893   0.42061   0.27809   1.000
    O146    O    0.13864   0.21814   0.55526   1.000
    O147    O    0.57887   0.71822   0.61117   1.000
    O148    O    0.21828   0.57894   0.38884   1.000
    O149    O    0.28155   0.92097   0.88887   1.000
    O150    O    0.42073   0.63909   0.72190   1.000
    O151    O    0.36108   0.07950   0.77806   1.000
loop_
    _geom_bond_atom_site_label_1
    _geom_bond_atom_site_label_2
    _geom_bond_distance
    _geom_bond_site_symmetry_2
    _ccdc_geom_bond_type
    Zr40   O41       1.52973      .   S
    N30    O41       3.39798  1_556   S
    Zr40   O42       1.54722      .   S
    N11    O42       3.43843      .   S
    Zr43   O44       1.52950      .   S
    N9     O44       3.39776      .   S
    Zr45   O46       1.53126      .   S
    N28    O46       3.40161      .   S
    Zr47   O48       1.52972      .   S
    N32    O48       3.39794  1_456   S
    Zr47   O49       1.54721      .   S
    N13    O49       3.43842      .   S
    Zr50   O51       1.53100      .   S
    N29    O51       3.40076      .   S
    Zr50   O52       1.54564      .   S
    N37    O52       3.43530      .   S
    Zr53   O54       1.54726      .   S
    N10    O54       3.43859      .   S
    Zr53   O55       1.52968      .   S
    N29    O55       3.39784  1_556   S
    Zr56   O57       1.53078      .   S
    N37    O57       3.40062      .   S
    Zr56   O58       1.52880      .   S
    N11    O58       3.39599  1_554   S
    Zr59   O60       1.53088      .   S
    N11    O60       3.40064      .   S
    Zr59   O61       1.54618      .   S
    N6     O61       3.43645      .   S
    Zr62   O63       1.54563      .   S
    N39    O63       3.43529      .   S
    Zr62   O64       1.53101      .   S
    N32    O64       3.40081  1_455   S
    Zr65   O66       1.54563      .   S
    N38    O66       3.43529      .   S
    Zr65   O67       1.53101      .   S
    N31    O67       3.40081  1_455   S
    Zr68   O69       1.52950      .   S
    N6     O69       3.39777      .   S
    Zr70   O71       1.52858      .   S
    N10    O71       3.39568  1_544   S
    Zr70   O72       1.53105      .   S
    N28    O72       3.40107      .   S
    Zr73   O74       1.54726      .   S
    N12    O74       3.43859      .   S
    Zr73   O75       1.52972      .   S
    N31    O75       3.39794  1_456   S
    Zr76   O77       1.53127      .   S
    N38    O77       3.40155      .   S
    Zr78   O79       1.54618      .   S
    N7     O79       3.43644      .   S
    Zr78   O80       1.53087      .   S
    N10    O80       3.40063  1_545   S
    Zr81   O82       1.53127      .   S
    N39    O82       3.40162      .   S
    Zr83   O84       1.53104      .   S
    N39    O84       3.40108      .   S
    Zr83   O85       1.52858      .   S
    N12    O85       3.39567  1_544   S
    Zr86   O87       1.53110      .   S
    N38    O87       3.40124      .   S
    Zr86   O88       1.52855      .   S
    N13    O88       3.39558  1_554   S
    Zr89   O90       1.53081      .   S
    N30    O90       3.40079      .   S
    Zr89   O91       1.54564      .   S
    N28    O91       3.43530      .   S
    Zr92   O93       1.52950      .   S
    N8     O93       3.39777      .   S
    Zr94   O95       1.53133      .   S
    N37    O95       3.40173      .   S
    Zr96   O97       1.52950      .   S
    N7     O97       3.39776      .   S
    Zr98   O99       1.53086      .   S
    N13    O99       3.40059      .   S
    Zr98   O100      1.54618      .   S
    N8     O100      3.43645      .   S
    Zr101  O102      1.54618      .   S
    N9     O102      3.43644      .   S
    Zr101  O103      1.53088      .   S
    N12    O103      3.40065  1_545   S
    Zr53   O104      1.02758      .   S
    N24    O104      2.03221      .   S
    Zr53   O105      1.02880      .   S
    N14    O105      2.03412      .   S
    N22    O106      2.03408      .   S
    Zr43   O106      1.02892      .   S
    N22    O107      2.03351      .   S
    Zr98   O107      1.02862      .   S
    N21    O108      2.03423  1_565   S
    Zr68   O108      1.02897      .   S
    N21    O109      2.03360      .   S
    Zr78   O109      1.02864      .   S
    N23    O110      2.03423  1_565   S
    Zr92   O110      1.02897      .   S
    N23    O111      2.03360      .   S
    Zr101  O111      1.02864      .   S
    N20    O112      2.03368      .   S
    Zr86   O112      1.02865      .   S
    N20    O113      2.03304      .   S
    Zr62   O113      1.02839      .   S
    N27    O114      2.03235  1_455   S
    Zr47   O114      1.02763      .   S
    N27    O115      2.03409      .   S
    Zr78   O115      1.02882      .   S
    Zr65   O116      1.02842      .   S
    N19    O116      2.03314      .   S
    Zr65   O117      1.02852      .   S
    N35    O117      2.03344      .   S
    N26    O118      2.03409      .   S
    Zr59   O118      1.02882      .   S
    N26    O119      2.03234  1_455   S
    Zr73   O119      1.02763      .   S
    N19    O120      2.03380  1_545   S
    Zr83   O120      1.02869      .   S
    Zr68   O121      1.02907      .   S
    N1     O121      2.03428      .   S
    N18    O122      2.03333      .   S
    Zr56   O122      1.02844      .   S
    N18    O123      2.03303      .   S
    Zr89   O123      1.02838      .   S
    Zr43   O124      1.02910      .   S
    N4     O124      2.03434      .   S
    N24    O125      2.03397      .   S
    Zr98   O125      1.02878      .   S
    Zr76   O126      1.02843      .   S
    N33    O126      2.03307      .   S
    Zr76   O127      1.02907      .   S
    N3     O127      2.03444      .   S
    N35    O128      2.03321  1_655   S
    Zr94   O128      1.02847      .   S
    Zr47   O129      1.02897      .   S
    N16    O129      2.03459      .   S
    Zr45   O130      1.02887      .   S
    N2     O130      2.03405      .   S
    Zr45   O131      1.02842      .   S
    N0     O131      2.03311  1_655   S
    N2     O132      2.03432      .   S
    Zr96   O132      1.02908      .   S
    N25    O133      2.03397      .   S
    Zr101  O133      1.02878      .   S
    N25    O134      2.03221      .   S
    Zr40   O134      1.02759      .   S
    N4     O135      2.03402      .   S
    Zr81   O135      1.02887      .   S
    N5     O136      2.03390  1_554   S
    Zr70   O136      1.02743      .   S
    N5     O137      2.03419      .   S
    Zr40   O137      1.02893      .   S
    N33    O138      2.03333      .   S
    Zr50   O138      1.02848      .   S
    N14    O139      2.03441  1_554   S
    Zr56   O139      1.02769      .   S
    N15    O140      2.03346  1_554   S
    Zr86   O140      1.02728      .   S
    N15    O141      2.03470      .   S
    Zr73   O141      1.02900      .   S
    Zr92   O142      1.02889      .   S
    N3     O142      2.03377      .   S
    N16    O143      2.03357  1_554   S
    Zr83   O143      1.02732      .   S
    Zr62   O144      1.02852      .   S
    N0     O144      2.03345      .   S
    Zr59   O145      1.02862      .   S
    N36    O145      2.03352      .   S
    Zr94   O146      1.02891      .   S
    N1     O146      2.03394      .   S
    Zr81   O147      1.02838      .   S
    N34    O147      2.03300      .   S
    N36    O148      2.03409      .   S
    Zr96   O148      1.02893      .   S
    Zr70   O149      1.02869      .   S
    N17    O149      2.03379  1_545   S
    N34    O150      2.03331      .   S
    Zr89   O150      1.02848      .   S
    Zr50   O151      1.02842      .   S
    N17    O151      2.03314      .   S
