# CIF file generated by openbabel 2.4.90, see http://openbabel.sf.net
data_I
_chemical_name_common ''
_cell_length_a 23.173
_cell_length_b 23.132
_cell_length_c 22.876
_cell_angle_alpha 89.923
_cell_angle_beta 90.038
_cell_angle_gamma 119.768
_space_group_name_H-M_alt 'P 1'
_space_group_name_Hall 'P 1'
loop_
    _symmetry_equiv_pos_as_xyz
    x,y,z
loop_
    _atom_site_label
    _atom_site_type_symbol
    _atom_site_fract_x
    _atom_site_fract_y
    _atom_site_fract_z
    _atom_site_occupancy
    Zr0     Zr   0.26104   0.38083   0.91680   1.000
    Zr1     Zr   0.26104   0.88082   0.91684   1.000
    Zr2     Zr   0.76103   0.38083   0.91684   1.000
    Zr3     Zr   0.76103   0.88082   0.91684   1.000
    Zr4     Zr   0.11890   0.23864   0.58320   1.000
    Zr5     Zr   0.11890   0.73863   0.58321   1.000
    Zr6     Zr   0.61889   0.23864   0.58320   1.000
    Zr7     Zr   0.61889   0.73863   0.58321   1.000
    Zr8     Zr   0.11929   0.38063   0.25002   1.000
    Zr9     Zr   0.11929   0.88062   0.25002   1.000
    Zr10    Zr   0.61928   0.38063   0.25002   1.000
    Zr11    Zr   0.61928   0.88062   0.25002   1.000
    Zr12    Zr   0.23876   0.11903   0.41682   1.000
    Zr13    Zr   0.23876   0.61902   0.41682   1.000
    Zr14    Zr   0.73875   0.11903   0.41682   1.000
    Zr15    Zr   0.73875   0.61902   0.41682   1.000
    Zr16    Zr   0.38118   0.26124   0.08330   1.000
    Zr17    Zr   0.38118   0.76123   0.08330   1.000
    Zr18    Zr   0.88117   0.26124   0.08330   1.000
    Zr19    Zr   0.88117   0.76123   0.08330   1.000
    Zr20    Zr   0.38079   0.11952   0.74997   1.000
    Zr21    Zr   0.38079   0.61951   0.74997   1.000
    Zr22    Zr   0.88078   0.11952   0.74997   1.000
    Zr23    Zr   0.88078   0.61951   0.74997   1.000
    N24     N    0.99974   0.67855   0.66646   1.000
    O25     O    0.03285   0.68610   0.63244   1.000
    O26     O    0.04484   0.70953   0.64584   1.000
    O27     O    0.96674   0.65301   0.70056   1.000
    O28     O    0.95458   0.66435   0.68711   1.000
    N29     N    0.17837   0.17835   0.50005   1.000
    O30     O    0.15268   0.18591   0.53400   1.000
    O31     O    0.16406   0.20939   0.52065   1.000
    O32     O    0.18604   0.15276   0.46603   1.000
    O33     O    0.20938   0.16400   0.47949   1.000
    N34     N    0.17837   0.67834   0.50006   1.000
    O35     O    0.15268   0.68590   0.53402   1.000
    O36     O    0.16406   0.70938   0.52066   1.000
    O37     O    0.18604   0.65276   0.46603   1.000
    O38     O    0.20939   0.66399   0.47949   1.000
    N39     N    0.67836   0.17835   0.50001   1.000
    O40     O    0.65267   0.18591   0.53398   1.000
    O41     O    0.66405   0.20939   0.52063   1.000
    O42     O    0.68603   0.15276   0.46601   1.000
    O43     O    0.70937   0.16400   0.47946   1.000
    N44     N    0.67836   0.67834   0.50006   1.000
    O45     O    0.65267   0.68590   0.53403   1.000
    O46     O    0.66405   0.70938   0.52066   1.000
    O47     O    0.68603   0.65276   0.46604   1.000
    O48     O    0.70937   0.66399   0.47950   1.000
    N49     N    0.32152   0.82149   0.00007   1.000
    O50     O    0.31379   0.84705   0.96604   1.000
    O51     O    0.29048   0.83584   0.97924   1.000
    O52     O    0.34728   0.81393   0.03403   1.000
    O53     O    0.33585   0.79043   0.02073   1.000
    N54     N    0.74393   0.98700   0.58340   1.000
    O55     O    0.74480   0.03611   0.51818   1.000
    N56     N    0.24383   0.25638   0.25000   1.000
    O57     O    0.19655   0.30349   0.24997   1.000
    O58     O    0.24451   0.20787   0.31523   1.000
    N59     N    0.24383   0.75637   0.25000   1.000
    O60     O    0.19655   0.80348   0.24997   1.000
    O61     O    0.24451   0.70786   0.31523   1.000
    N62     N    0.74382   0.25638   0.25000   1.000
    O63     O    0.69654   0.30349   0.24997   1.000
    O64     O    0.74450   0.20787   0.31523   1.000
    N65     N    0.74382   0.75637   0.25000   1.000
    O66     O    0.69654   0.80348   0.24997   1.000
    O67     O    0.74450   0.70786   0.31523   1.000
    N68     N    0.48688   0.24378   0.41661   1.000
    O69     O    0.53602   0.24464   0.48178   1.000
    N70     N    0.48689   0.74377   0.41661   1.000
    O71     O    0.53602   0.74463   0.48178   1.000
    N72     N    0.98689   0.24378   0.41661   1.000
    O73     O    0.03602   0.24464   0.48178   1.000
    N74     N    0.98689   0.74377   0.41661   1.000
    O75     O    0.03602   0.74463   0.48178   1.000
    N76     N    0.25611   0.01295   0.08333   1.000
    O77     O    0.30373   0.10713   0.08341   1.000
    O78     O    0.20773   0.96375   0.14848   1.000
    O79     O    0.25513   0.96379   0.01814   1.000
    N80     N    0.25611   0.51295   0.08332   1.000
    O81     O    0.30373   0.60713   0.08341   1.000
    O82     O    0.20773   0.46375   0.14848   1.000
    O83     O    0.25513   0.46380   0.01813   1.000
    N84     N    0.75610   0.01295   0.08333   1.000
    O85     O    0.80372   0.10713   0.08341   1.000
    O86     O    0.75512   0.96379   0.01814   1.000
    O87     O    0.70772   0.96375   0.14848   1.000
    N88     N    0.75610   0.51295   0.08333   1.000
    O89     O    0.80372   0.60713   0.08341   1.000
    O90     O    0.75512   0.46380   0.01814   1.000
    O91     O    0.70772   0.46375   0.14848   1.000
    N92     N    0.32152   0.32150   0.00008   1.000
    O93     O    0.31379   0.34706   0.96604   1.000
    O94     O    0.29048   0.33585   0.97924   1.000
    O95     O    0.34728   0.31394   0.03404   1.000
    O96     O    0.33585   0.29044   0.02076   1.000
    N97     N    0.82151   0.32150   0.00003   1.000
    O98     O    0.81378   0.34706   0.96602   1.000
    O99     O    0.79046   0.33585   0.97922   1.000
    O100    O    0.84726   0.31394   0.03401   1.000
    O101    O    0.83584   0.29044   0.02073   1.000
    N102    N    0.82151   0.82149   0.00004   1.000
    O103    O    0.81378   0.84705   0.96602   1.000
    O104    O    0.79047   0.83584   0.97923   1.000
    O105    O    0.84726   0.81393   0.03402   1.000
    O106    O    0.83584   0.79043   0.02074   1.000
    N107    N    0.74393   0.48700   0.58339   1.000
    O108    O    0.74480   0.53610   0.51817   1.000
    N109    N    0.32141   0.00033   0.83355   1.000
    O110    O    0.31372   0.96712   0.86765   1.000
    O111    O    0.29038   0.95511   0.85416   1.000
    O112    O    0.34705   0.03338   0.79949   1.000
    O113    O    0.33569   0.04556   0.81283   1.000
    N114    N    0.32141   0.50033   0.83355   1.000
    O115    O    0.31372   0.46712   0.86764   1.000
    O116    O    0.29038   0.45511   0.85415   1.000
    O117    O    0.34705   0.53338   0.79949   1.000
    O118    O    0.33569   0.54556   0.81283   1.000
    N119    N    0.82140   0.00033   0.83355   1.000
    O120    O    0.81371   0.96712   0.86764   1.000
    O121    O    0.79037   0.95511   0.85416   1.000
    O122    O    0.84703   0.03338   0.79949   1.000
    O123    O    0.83567   0.04556   0.81282   1.000
    N124    N    0.82140   0.50033   0.83355   1.000
    O125    O    0.81371   0.46712   0.86765   1.000
    O126    O    0.79037   0.45511   0.85416   1.000
    O127    O    0.84703   0.53338   0.79949   1.000
    O128    O    0.83567   0.54556   0.81283   1.000
    N129    N    0.17849   0.99971   0.33352   1.000
    O130    O    0.15292   0.96670   0.29944   1.000
    O131    O    0.16422   0.95448   0.31286   1.000
    O132    O    0.18612   0.03286   0.36759   1.000
    O133    O    0.20949   0.04487   0.35414   1.000
    N134    N    0.67848   0.49971   0.33352   1.000
    O135    O    0.65291   0.46671   0.29944   1.000
    O136    O    0.66421   0.45449   0.31286   1.000
    O137    O    0.70948   0.54487   0.35414   1.000
    O138    O    0.68611   0.53286   0.36759   1.000
    N139    N    0.67848   0.99970   0.33352   1.000
    O140    O    0.65291   0.96670   0.29944   1.000
    O141    O    0.70948   0.04487   0.35414   1.000
    O142    O    0.68611   0.03286   0.36759   1.000
    O143    O    0.66421   0.95448   0.31286   1.000
    N144    N    0.50039   0.32149   0.16638   1.000
    O145    O    0.53337   0.34708   0.20047   1.000
    O146    O    0.54552   0.33570   0.18710   1.000
    O147    O    0.46728   0.31388   0.13235   1.000
    O148    O    0.45528   0.29048   0.14576   1.000
    N149    N    0.50039   0.82148   0.16638   1.000
    O150    O    0.53337   0.84707   0.20047   1.000
    O151    O    0.54552   0.83569   0.18710   1.000
    O152    O    0.45528   0.79047   0.14576   1.000
    O153    O    0.46728   0.81387   0.13235   1.000
    N154    N    0.00039   0.32149   0.16638   1.000
    O155    O    0.03338   0.34708   0.20047   1.000
    O156    O    0.04552   0.33570   0.18710   1.000
    O157    O    0.95527   0.29048   0.14576   1.000
    O158    O    0.96728   0.31388   0.13235   1.000
    N159    N    0.00039   0.82148   0.16638   1.000
    O160    O    0.03338   0.84707   0.20047   1.000
    O161    O    0.04553   0.83569   0.18710   1.000
    O162    O    0.95527   0.79047   0.14576   1.000
    O163    O    0.96728   0.81387   0.13235   1.000
    N164    N    0.25622   0.74365   0.75006   1.000
    O165    O    0.30359   0.69667   0.74999   1.000
    O166    O    0.25544   0.79210   0.81526   1.000
    O167    O    0.20759   0.74423   0.68487   1.000
    N168    N    0.51308   0.25618   0.91659   1.000
    O169    O    0.46390   0.20790   0.85146   1.000
    O170    O    0.46398   0.25536   0.98178   1.000
    N171    N    0.51308   0.75617   0.91658   1.000
    O172    O    0.46390   0.70789   0.85143   1.000
    O173    O    0.46398   0.75535   0.98178   1.000
    N174    N    0.01307   0.25618   0.91659   1.000
    O175    O    0.96389   0.20790   0.85146   1.000
    O176    O    0.96398   0.25536   0.98178   1.000
    N177    N    0.01308   0.75617   0.91659   1.000
    O178    O    0.96389   0.70789   0.85146   1.000
    O179    O    0.96398   0.75535   0.98178   1.000
    N180    N    0.24394   0.48700   0.58340   1.000
    O181    O    0.24481   0.53610   0.51818   1.000
    N182    N    0.24394   0.98700   0.58340   1.000
    O183    O    0.24481   0.03611   0.51818   1.000
    N184    N    0.49973   0.17856   0.66646   1.000
    O185    O    0.53284   0.18611   0.63243   1.000
    O186    O    0.54483   0.20953   0.64583   1.000
    O187    O    0.46675   0.15302   0.70056   1.000
    O188    O    0.45459   0.16436   0.68711   1.000
    N189    N    0.49973   0.67855   0.66646   1.000
    O190    O    0.53284   0.68610   0.63244   1.000
    O191    O    0.54483   0.70953   0.64584   1.000
    O192    O    0.46675   0.65301   0.70056   1.000
    O193    O    0.45459   0.66435   0.68711   1.000
    N194    N    0.99973   0.17856   0.66646   1.000
    O195    O    0.03285   0.18611   0.63243   1.000
    O196    O    0.04484   0.20953   0.64583   1.000
    O197    O    0.96674   0.15302   0.70056   1.000
    O198    O    0.95458   0.16436   0.68711   1.000
    N199    N    0.17849   0.49970   0.33352   1.000
    O200    O    0.15292   0.46671   0.29944   1.000
    O201    O    0.16422   0.45449   0.31286   1.000
    O202    O    0.20949   0.54487   0.35414   1.000
    O203    O    0.18612   0.53286   0.36759   1.000
    N204    N    0.25622   0.24366   0.75006   1.000
    O205    O    0.30359   0.19668   0.74999   1.000
    O206    O    0.25544   0.29210   0.81525   1.000
    O207    O    0.20759   0.24424   0.68487   1.000
    N208    N    0.75621   0.24366   0.75005   1.000
    O209    O    0.80358   0.19668   0.74998   1.000
    O210    O    0.75543   0.29210   0.81526   1.000
    O211    O    0.70758   0.24424   0.68486   1.000
    N212    N    0.75621   0.74365   0.75006   1.000
    O213    O    0.80358   0.69667   0.74999   1.000
    O214    O    0.75543   0.79209   0.81526   1.000
    O215    O    0.70758   0.74423   0.68487   1.000
loop_
    _geom_bond_atom_site_label_1
    _geom_bond_atom_site_label_2
    _geom_bond_distance
    _geom_bond_site_symmetry_2
    _ccdc_geom_bond_type
    N24    O25       1.04519  1_655   S
    Zr5    O25       2.07708      .   S
    N24    O26       1.04139  1_655   S
    Zr5    O26       2.07477      .   S
    N24    O27       1.04553      .   S
    Zr23   O27       2.07708      .   S
    N24    O28       1.04155      .   S
    Zr23   O28       2.07522      .   S
    N29    O30       1.04532      .   S
    Zr4    O30       2.07832      .   S
    N29    O31       1.04182      .   S
    Zr4    O31       2.07544      .   S
    N29    O32       1.04559      .   S
    Zr12   O32       2.07850      .   S
    N29    O33       1.04192      .   S
    Zr12   O33       2.07593      .   S
    N34    O35       1.04563      .   S
    Zr5    O35       2.07816      .   S
    N34    O36       1.04185      .   S
    Zr5    O36       2.07548      .   S
    N34    O37       1.04563      .   S
    Zr13   O37       2.07852      .   S
    N34    O38       1.04195      .   S
    Zr13   O38       2.07595      .   S
    N39    O40       1.04572      .   S
    Zr6    O40       2.07861      .   S
    N39    O41       1.04207      .   S
    Zr6    O41       2.07580      .   S
    N39    O42       1.04519      .   S
    Zr14   O42       2.07820      .   S
    N39    O43       1.04169      .   S
    Zr14   O43       2.07552      .   S
    N44    O45       1.04561      .   S
    Zr7    O45       2.07815      .   S
    N44    O46       1.04183      .   S
    Zr7    O46       2.07548      .   S
    N44    O47       1.04565      .   S
    Zr15   O47       2.07853      .   S
    N44    O48       1.04194      .   S
    Zr15   O48       2.07599      .   S
    N49    O50       1.04456  1_554   S
    Zr1    O50       2.07737      .   S
    N49    O51       1.04442  1_554   S
    Zr1    O51       2.07004      .   S
    N49    O52       1.04563      .   S
    Zr17   O52       2.07828      .   S
    N49    O53       1.04200      .   S
    Zr17   O53       2.07557      .   S
    N54    O55       1.86808  1_565   S
    Zr14   O55       3.05445      .   S
    N56    O57       1.89027      .   S
    Zr8    O57       3.09236      .   S
    N56    O58       1.87063      .   S
    Zr12   O58       3.05901      .   S
    N59    O60       1.89026      .   S
    Zr9    O60       3.09236      .   S
    N59    O61       1.87063      .   S
    Zr13   O61       3.05900      .   S
    N62    O63       1.89027      .   S
    Zr10   O63       3.09236      .   S
    N62    O64       1.87063      .   S
    Zr14   O64       3.05900      .   S
    N65    O66       1.89026      .   S
    Zr11   O66       3.09236      .   S
    N65    O67       1.87063      .   S
    Zr15   O67       3.05900      .   S
    N68    O69       1.86947      .   S
    Zr6    O69       3.05749      .   S
    N70    O71       1.86951      .   S
    Zr7    O71       3.05760      .   S
    N72    O73       1.86953  1_655   S
    Zr4    O73       3.05754      .   S
    N74    O75       1.86958  1_655   S
    Zr5    O75       3.05768      .   S
    N76    O77       1.89133      .   S
    Zr16   O77       3.09453      .   S
    N76    O78       1.87202  1_545   S
    Zr9    O78       3.06174      .   S
    N76    O79       1.86975  1_545   S
    Zr1    O79       3.05716  1_556   S
    N80    O81       1.89122      .   S
    Zr17   O81       3.09443      .   S
    N80    O82       1.87203      .   S
    Zr8    O82       3.06175      .   S
    N80    O83       1.86984      .   S
    Zr0    O83       3.05761  1_556   S
    N84    O85       1.89133      .   S
    Zr18   O85       3.09453      .   S
    N84    O86       1.86974  1_545   S
    Zr3    O86       3.05715  1_556   S
    N84    O87       1.87203  1_545   S
    Zr11   O87       3.06176      .   S
    N88    O89       1.89122      .   S
    Zr19   O89       3.09441      .   S
    N88    O90       1.86968      .   S
    Zr2    O90       3.05710  1_556   S
    N88    O91       1.87200      .   S
    Zr10   O91       3.06172      .   S
    N92    O93       1.04486  1_554   S
    Zr0    O93       2.07782      .   S
    N92    O94       1.04460  1_554   S
    Zr0    O94       2.07061      .   S
    N92    O95       1.04551      .   S
    Zr16   O95       2.07820      .   S
    N92    O96       1.04216      .   S
    Zr16   O96       2.07513      .   S
    N97    O98       1.04422  1_554   S
    Zr2    O98       2.07710      .   S
    N97    O99       1.04420  1_554   S
    Zr2    O99       2.06972      .   S
    N97    O100      1.04597      .   S
    Zr18   O100      2.07854      .   S
    N97    O101      1.04242      .   S
    Zr18   O101      2.07559      .   S
    N102   O103      1.04431  1_554   S
    Zr3    O103      2.07717      .   S
    N102   O104      1.04425  1_554   S
    Zr3    O104      2.06980      .   S
    N102   O105      1.04588      .   S
    Zr19   O105      2.07847      .   S
    N102   O106      1.04238      .   S
    Zr19   O106      2.07550      .   S
    N107   O108      1.86789      .   S
    Zr15   O108      3.05430      .   S
    N109   O110      1.04542  1_545   S
    Zr1    O110      2.07787      .   S
    N109   O111      1.04195  1_545   S
    Zr1    O111      2.07506      .   S
    N109   O112      1.04533      .   S
    Zr20   O112      2.07669      .   S
    N109   O113      1.04132      .   S
    Zr20   O113      2.07519      .   S
    N114   O115      1.04518      .   S
    Zr0    O115      2.07743      .   S
    N114   O116      1.04178      .   S
    Zr0    O116      2.07452      .   S
    N114   O117      1.04529      .   S
    Zr21   O117      2.07661      .   S
    N114   O118      1.04123      .   S
    Zr21   O118      2.07513      .   S
    N119   O120      1.04543  1_545   S
    Zr3    O120      2.07787      .   S
    N119   O121      1.04195  1_545   S
    Zr3    O121      2.07507      .   S
    N119   O122      1.04533      .   S
    Zr22   O122      2.07670      .   S
    N119   O123      1.04132      .   S
    Zr22   O123      2.07519      .   S
    N124   O125      1.04535      .   S
    Zr2    O125      2.07779      .   S
    N124   O126      1.04188      .   S
    Zr2    O126      2.07499      .   S
    N124   O127      1.04529      .   S
    Zr23   O127      2.07662      .   S
    N124   O128      1.04123      .   S
    Zr23   O128      2.07513      .   S
    N129   O130      1.04572      .   S
    Zr9    O130      2.07717      .   S
    N129   O131      1.04144      .   S
    Zr9    O131      2.07562      .   S
    N129   O132      1.04576  1_565   S
    Zr12   O132      2.07829      .   S
    N129   O133      1.04192  1_565   S
    Zr12   O133      2.07578      .   S
    N134   O135      1.04569      .   S
    Zr10   O135      2.07710      .   S
    N134   O136      1.04135      .   S
    Zr10   O136      2.07558      .   S
    N134   O137      1.04183      .   S
    Zr15   O137      2.07567      .   S
    N134   O138      1.04566      .   S
    Zr15   O138      2.07819      .   S
    N139   O140      1.04572      .   S
    Zr11   O140      2.07717      .   S
    N139   O141      1.04192  1_565   S
    Zr14   O141      2.07578      .   S
    N139   O142      1.04575  1_565   S
    Zr14   O142      2.07829      .   S
    N139   O143      1.04144      .   S
    Zr11   O143      2.07562      .   S
    N144   O145      1.04593      .   S
    Zr10   O145      2.07734      .   S
    N144   O146      1.04166      .   S
    Zr10   O146      2.07600      .   S
    N144   O147      1.04444      .   S
    Zr16   O147      2.07628      .   S
    N144   O148      1.04177      .   S
    Zr16   O148      2.07216      .   S
    N149   O150      1.04592      .   S
    Zr11   O150      2.07733      .   S
    N149   O151      1.04166      .   S
    Zr11   O151      2.07599      .   S
    N149   O152      1.04177      .   S
    Zr17   O152      2.07217      .   S
    N149   O153      1.04444      .   S
    Zr17   O153      2.07629      .   S
    N154   O155      1.04598      .   S
    Zr8    O155      2.07743      .   S
    N154   O156      1.04176      .   S
    Zr8    O156      2.07607      .   S
    N154   O157      1.04185  1_455   S
    Zr18   O157      2.07224      .   S
    N154   O158      1.04452  1_455   S
    Zr18   O158      2.07637      .   S
    N159   O160      1.04598      .   S
    Zr9    O160      2.07743      .   S
    N159   O161      1.04176      .   S
    Zr9    O161      2.07606      .   S
    N159   O162      1.04186  1_455   S
    Zr19   O162      2.07225      .   S
    N159   O163      1.04453  1_455   S
    Zr19   O163      2.07638      .   S
    N164   O165      1.88967      .   S
    Zr21   O165      3.09127      .   S
    N164   O166      1.87238      .   S
    Zr1    O166      3.06209      .   S
    N164   O167      1.87255      .   S
    Zr5    O167      3.06253      .   S
    N168   O169      1.87206      .   S
    Zr20   O169      3.06200      .   S
    N168   O170      1.87061      .   S
    Zr16   O170      3.05936  1_554   S
    N171   O172      1.87230      .   S
    Zr21   O172      3.06161      .   S
    N171   O173      1.87070      .   S
    Zr17   O173      3.05946  1_554   S
    N174   O175      1.87210  1_455   S
    Zr22   O175      3.06202      .   S
    N174   O176      1.87068  1_455   S
    Zr18   O176      3.05944  1_554   S
    N177   O178      1.87210  1_455   S
    Zr23   O178      3.06203      .   S
    N177   O179      1.87068  1_455   S
    Zr19   O179      3.05944  1_554   S
    N180   O181      1.86802      .   S
    Zr13   O181      3.05441      .   S
    N182   O183      1.86808  1_565   S
    Zr12   O183      3.05446      .   S
    N184   O185      1.04514      .   S
    Zr6    O185      2.07710      .   S
    N184   O186      1.04133      .   S
    Zr6    O186      2.07480      .   S
    N184   O187      1.04549      .   S
    Zr20   O187      2.07698      .   S
    N184   O188      1.04145      .   S
    Zr20   O188      2.07517      .   S
    N189   O190      1.04511      .   S
    Zr7    O190      2.07701      .   S
    N189   O191      1.04131      .   S
    Zr7    O191      2.07470      .   S
    N189   O192      1.04547      .   S
    Zr21   O192      2.07697      .   S
    N189   O193      1.04144      .   S
    Zr21   O193      2.07515      .   S
    N194   O195      1.04523  1_655   S
    Zr4    O195      2.07719      .   S
    N194   O196      1.04141  1_655   S
    Zr4    O196      2.07490      .   S
    N194   O197      1.04553      .   S
    Zr22   O197      2.07707      .   S
    N194   O198      1.04155      .   S
    Zr22   O198      2.07522      .   S
    N199   O200      1.04570      .   S
    Zr8    O200      2.07710      .   S
    N199   O201      1.04135      .   S
    Zr8    O201      2.07558      .   S
    N199   O202      1.04183      .   S
    Zr13   O202      2.07568      .   S
    N199   O203      1.04566      .   S
    Zr13   O203      2.07820      .   S
    N204   O205      1.88967      .   S
    Zr20   O205      3.09127      .   S
    N204   O206      1.87219      .   S
    Zr0    O206      3.06156      .   S
    N204   O207      1.87260      .   S
    Zr4    O207      3.06266      .   S
    N208   O209      1.88966      .   S
    Zr22   O209      3.09126      .   S
    N208   O210      1.87249      .   S
    Zr2    O210      3.06220      .   S
    N208   O211      1.87248      .   S
    Zr6    O211      3.06254      .   S
    N212   O213      1.88966      .   S
    Zr23   O213      3.09127      .   S
    N212   O214      1.87238      .   S
    Zr3    O214      3.06209      .   S
    N212   O215      1.87255      .   S
    Zr7    O215      3.06254      .   S
