# CIF file generated by openbabel 2.4.90, see http://openbabel.sf.net
data_I
_chemical_name_common ''
_cell_length_a 14.364
_cell_length_b 12.417
_cell_length_c 20.761
_cell_angle_alpha 90
_cell_angle_beta 90
_cell_angle_gamma 90.051
_space_group_name_H-M_alt 'P 1'
_space_group_name_Hall 'P 1'
loop_
    _symmetry_equiv_pos_as_xyz
    x,y,z
loop_
    _atom_site_label
    _atom_site_type_symbol
    _atom_site_fract_x
    _atom_site_fract_y
    _atom_site_fract_z
    _atom_site_occupancy
    Cu0     Cu   0.62533   0.33380   0.24999   1.000
    Cu1     Cu   0.12485   0.83402   0.74998   1.000
    Cu2     Cu   0.62468   0.83384   0.74998   1.000
    Cu3     Cu   0.37464   0.66623   0.74998   1.000
    Cu4     Cu   0.87469   0.66622   0.74998   1.000
    Cu5     Cu   0.37529   0.16618   0.24999   1.000
    Cu6     Cu   0.87512   0.16600   0.24999   1.000
    Cu7     Cu   0.12528   0.33380   0.24999   1.000
    S8      S    0.18714   0.42272   0.33652   1.000
    S9      S    0.68739   0.42249   0.33660   1.000
    S10     S    0.06306   0.92288   0.66300   1.000
    S11     S    0.56281   0.92256   0.66338   1.000
    S12     S    0.31258   0.57753   0.83659   1.000
    S13     S    0.81283   0.57730   0.83651   1.000
    S14     S    0.43715   0.07746   0.16330   1.000
    S15     S    0.93691   0.07714   0.16340   1.000
    S16     S    0.31258   0.57753   0.66337   1.000
    S17     S    0.81283   0.57730   0.66345   1.000
    S18     S    0.43715   0.07746   0.33600   1.000
    S19     S    0.93691   0.07714   0.33658   1.000
    S20     S    0.18714   0.42272   0.16346   1.000
    S21     S    0.68738   0.42249   0.16338   1.000
    S22     S    0.06306   0.92288   0.83657   1.000
    S23     S    0.56281   0.92256   0.83650   1.000
    Br24    Br   0.44891   0.35040   0.24999   1.000
    Br25    Br   0.94883   0.35013   0.24999   1.000
    Br26    Br   0.30128   0.85043   0.74998   1.000
    Br27    Br   0.80114   0.85035   0.74998   1.000
    Br28    Br   0.05114   0.64990   0.74998   1.000
    Br29    Br   0.55106   0.64962   0.74998   1.000
    Br30    Br   0.19883   0.14967   0.24999   1.000
    Br31    Br   0.69869   0.14960   0.24999   1.000
loop_
    _geom_bond_atom_site_label_1
    _geom_bond_atom_site_label_2
    _geom_bond_distance
    _geom_bond_site_symmetry_2
    _ccdc_geom_bond_type
    S14    Cu5       2.29004      .   S
    S21    Cu0       2.28890      .   S
    S15    Cu6       2.28885      .   S
    S20    Cu7       2.28779      .   S
    Br30   Cu7       2.51945      .   S
    Br25   Cu6       2.51864      .   S
    Br24   Cu5       2.51923      .   S
    Cu0    Br31      2.51914      .   S
    Cu0    S9        2.28891      .   S
    Cu7    S8        2.28779      .   S
    Cu5    S18       2.27898      .   S
    Cu6    S19       2.28885      .   S
    S10    Cu1       2.29521      .   S
    S16    Cu3       2.28890      .   S
    S11    Cu2       2.28858      .   S
    S17    Cu4       2.28779      .   S
    Cu1    Br28      2.51862      .   S
    Cu1    S22       2.28884      .   S
    Cu4    Br27      2.51945      .   S
    Cu4    S13       2.28779      .   S
    Cu3    Br26      2.51914      .   S
    Cu3    S12       2.28890      .   S
    Cu2    Br29      2.51925      .   S
    Cu2    S23       2.28727      .   S
