# CIF file generated by openbabel 2.4.90, see http://openbabel.sf.net
data_I
_chemical_name_common ''
_cell_length_a 14.364
_cell_length_b 12.417
_cell_length_c 20.761
_cell_angle_alpha 90
_cell_angle_beta 90
_cell_angle_gamma 90.051
_space_group_name_H-M_alt 'P 1'
_space_group_name_Hall 'P 1'
loop_
    _symmetry_equiv_pos_as_xyz
    x,y,z
loop_
    _atom_site_label
    _atom_site_type_symbol
    _atom_site_fract_x
    _atom_site_fract_y
    _atom_site_fract_z
    _atom_site_occupancy
    Cu0     Cu   0.62533   0.33380   0.24999   1.000
    Cu1     Cu   0.12485   0.83402   0.74998   1.000
    Cu2     Cu   0.62468   0.83384   0.74998   1.000
    Cu3     Cu   0.37464   0.66623   0.74998   1.000
    Cu4     Cu   0.87469   0.66622   0.74998   1.000
    Cu5     Cu   0.37529   0.16618   0.24999   1.000
    Cu6     Cu   0.87512   0.16600   0.24999   1.000
    Cu7     Cu   0.12528   0.33380   0.24999   1.000
    S8      S    0.18714   0.42272   0.33652   1.000
    S9      S    0.68739   0.42249   0.33660   1.000
    S10     S    0.06306   0.92288   0.66300   1.000
    S11     S    0.56281   0.92256   0.66338   1.000
    S12     S    0.31258   0.57753   0.83659   1.000
    S13     S    0.81283   0.57730   0.83651   1.000
    S14     S    0.43715   0.07746   0.16330   1.000
    S15     S    0.93691   0.07714   0.16340   1.000
    S16     S    0.31258   0.57753   0.66337   1.000
    S17     S    0.81283   0.57730   0.66345   1.000
    S18     S    0.43715   0.07746   0.33600   1.000
    S19     S    0.93691   0.07714   0.33658   1.000
    S20     S    0.18714   0.42272   0.16346   1.000
    S21     S    0.68738   0.42249   0.16338   1.000
    S22     S    0.06306   0.92288   0.83657   1.000
    S23     S    0.56281   0.92256   0.83650   1.000
    Br24    Br   0.44891   0.35040   0.24999   1.000
    Br25    Br   0.94883   0.35013   0.24999   1.000
    Br26    Br   0.30128   0.85043   0.74998   1.000
    Br27    Br   0.80114   0.85035   0.74998   1.000
    Br28    Br   0.05114   0.64990   0.74998   1.000
    Br29    Br   0.55106   0.64962   0.74998   1.000
    Br30    Br   0.19883   0.14967   0.24999   1.000
    Br31    Br   0.69869   0.14960   0.24999   1.000
    Ts32    Ts   0.20479   0.38872   0.35398   1.000
    Ts33    Ts   0.15545   0.44188   0.35279   1.000
    Ts34    Ts   0.70503   0.38851   0.35408   1.000
    Ts35    Ts   0.65572   0.44169   0.35287   1.000
    Ts36    Ts   0.04535   0.88885   0.64570   1.000
    Ts37    Ts   0.09470   0.94207   0.64680   1.000
    Ts38    Ts   0.54515   0.88857   0.64589   1.000
    Ts39    Ts   0.59449   0.94179   0.64711   1.000
    Ts40    Ts   0.29494   0.61152   0.85407   1.000
    Ts41    Ts   0.34425   0.55834   0.85286   1.000
    Ts42    Ts   0.79518   0.61130   0.85367   1.000
    Ts43    Ts   0.84452   0.55815   0.85278   1.000
    Ts44    Ts   0.45482   0.11146   0.14584   1.000
    Ts45    Ts   0.40548   0.05823   0.14706   1.000
    Ts46    Ts   0.90527   0.05795   0.14708   1.000
    Ts47    Ts   0.95462   0.11118   0.14597   1.000
    Ts48    Ts   0.29494   0.61152   0.64588   1.000
    Ts49    Ts   0.34425   0.55834   0.64710   1.000
    Ts50    Ts   0.79518   0.61130   0.64599   1.000
    Ts51    Ts   0.84452   0.55814   0.64718   1.000
    Ts52    Ts   0.45482   0.11146   0.35368   1.000
    Ts53    Ts   0.40548   0.05823   0.35247   1.000
    Ts54    Ts   0.95462   0.11118   0.35401   1.000
    Ts55    Ts   0.90527   0.05795   0.35290   1.000
    Ts56    Ts   0.20479   0.38872   0.14600   1.000
    Ts57    Ts   0.15545   0.44188   0.14719   1.000
    Ts58    Ts   0.70503   0.38850   0.14590   1.000
    Ts59    Ts   0.65572   0.44169   0.14711   1.000
    Ts60    Ts   0.04535   0.88885   0.85400   1.000
    Ts61    Ts   0.09470   0.94207   0.85289   1.000
    Ts62    Ts   0.54515   0.88857   0.85401   1.000
    Ts63    Ts   0.59449   0.94179   0.85280   1.000
loop_
    _geom_bond_atom_site_label_1
    _geom_bond_atom_site_label_2
    _geom_bond_distance
    _geom_bond_site_symmetry_2
    _ccdc_geom_bond_type
    S14    Cu5       2.29004      .   S
    S21    Cu0       2.28890      .   S
    S15    Cu6       2.28885      .   S
    S20    Cu7       2.28779      .   S
    Br30   Cu7       2.51945      .   S
    Br25   Cu6       2.51864      .   S
    Br24   Cu5       2.51923      .   S
    Cu0    Br31      2.51914      .   S
    Cu0    S9        2.28891      .   S
    Cu7    S8        2.28779      .   S
    Cu5    S18       2.27898      .   S
    Cu6    S19       2.28885      .   S
    S10    Cu1       2.29521      .   S
    S16    Cu3       2.28890      .   S
    S11    Cu2       2.28858      .   S
    S17    Cu4       2.28779      .   S
    Cu1    Br28      2.51862      .   S
    Cu1    S22       2.28884      .   S
    Cu4    Br27      2.51945      .   S
    Cu4    S13       2.28779      .   S
    Cu3    Br26      2.51914      .   S
    Cu3    S12       2.28890      .   S
    Cu2    Br29      2.51925      .   S
    Cu2    S23       2.28727      .   S
    S8     Ts32      0.61164      .   S
    S8     Ts33      0.61481      .   S
    S9     Ts34      0.61170      .   S
    S9     Ts35      0.61475      .   S
    S10    Ts36      0.61003      .   S
    S10    Ts37      0.61342      .   S
    S11    Ts38      0.61172      .   S
    S11    Ts39      0.61479      .   S
    S12    Ts40      0.61170      .   S
    S12    Ts41      0.61475      .   S
    S13    Ts42      0.60801      .   S
    S13    Ts43      0.61481      .   S
    S14    Ts44      0.61135      .   S
    S14    Ts45      0.61445      .   S
    S15    Ts46      0.61483      .   S
    S15    Ts47      0.61162      .   S
    S16    Ts48      0.61186      .   S
    S16    Ts49      0.61475      .   S
    S17    Ts50      0.61164      .   S
    S17    Ts51      0.61481      .   S
    S18    Ts52      0.61415      .   S
    S18    Ts53      0.61704      .   S
    S19    Ts54      0.61162      .   S
    S19    Ts55      0.61483      .   S
    S20    Ts56      0.61164      .   S
    S20    Ts57      0.61480      .   S
    S21    Ts58      0.61170      .   S
    S21    Ts59      0.61475      .   S
    S22    Ts60      0.61162      .   S
    S22    Ts61      0.61483      .   S
    S23    Ts62      0.61204      .   S
    S23    Ts63      0.61509      .   S
