# CIF file generated by openbabel 2.4.90, see http://openbabel.sf.net
data_I
_chemical_name_common ''
_cell_length_a 14.364
_cell_length_b 12.417
_cell_length_c 20.761
_cell_angle_alpha 90
_cell_angle_beta 90
_cell_angle_gamma 90.051
_space_group_name_H-M_alt 'P 1'
_space_group_name_Hall 'P 1'
loop_
    _symmetry_equiv_pos_as_xyz
    x,y,z
loop_
    _atom_site_label
    _atom_site_type_symbol
    _atom_site_fract_x
    _atom_site_fract_y
    _atom_site_fract_z
    _atom_site_occupancy
    N0      N    0.83580   0.40869   0.99840   1.000
    N1      N    0.58568   0.09134   0.99844   1.000
    N2      N    0.91427   0.90841   0.49862   1.000
    N3      N    0.91427   0.90841   0.00135   1.000
    N4      N    0.33553   0.40883   0.99851   1.000
    N5      N    0.66444   0.59119   0.00139   1.000
    N6      N    0.41428   0.90842   0.00152   1.000
    N7      N    0.16417   0.59133   0.00156   1.000
    N8      N    0.66444   0.59119   0.49851   1.000
    N9      N    0.08569   0.09136   0.99862   1.000
    N10     N    0.58568   0.09134   0.50152   1.000
    N11     N    0.16417   0.59133   0.49840   1.000
    N12     N    0.83580   0.40869   0.50150   1.000
    N13     N    0.08569   0.09136   0.50135   1.000
    N14     N    0.41428   0.90842   0.49844   1.000
    N15     N    0.33553   0.40883   0.50145   1.000
    Zr16    Zr   0.17460   0.33223   0.24999   1.000
    O17     O    0.16324   0.42681   0.16015   1.000
    O18     O    0.22458   0.36125   0.15894   1.000
    O19     O    0.16324   0.42681   0.33983   1.000
    O20     O    0.22458   0.36125   0.34103   1.000
    Zr21    Zr   0.92444   0.16760   0.24999   1.000
    O22     O    0.91315   0.07299   0.33992   1.000
    O23     O    0.97451   0.13869   0.34101   1.000
    O24     O    0.91315   0.07299   0.16006   1.000
    O25     O    0.97451   0.13869   0.15896   1.000
    Zr26    Zr   0.67470   0.33209   0.24999   1.000
    O27     O    0.66343   0.42667   0.33987   1.000
    O28     O    0.72476   0.36110   0.34107   1.000
    O29     O    0.66343   0.42667   0.16009   1.000
    O30     O    0.72476   0.36110   0.15889   1.000
    Zr31    Zr   0.42463   0.16788   0.24982   1.000
    O32     O    0.47465   0.13889   0.34092   1.000
    O33     O    0.41329   0.07320   0.33970   1.000
    O34     O    0.41329   0.07320   0.16002   1.000
    O35     O    0.47465   0.13889   0.15880   1.000
    Zr36    Zr   0.07553   0.83242   0.74988   1.000
    O37     O    0.02545   0.86127   0.65886   1.000
    O38     O    0.08682   0.92697   0.65995   1.000
    O39     O    0.02545   0.86127   0.84096   1.000
    O40     O    0.08682   0.92697   0.83986   1.000
    Zr41    Zr   0.57534   0.83215   0.74996   1.000
    O42     O    0.58667   0.92676   0.66010   1.000
    O43     O    0.52532   0.86107   0.65888   1.000
    O44     O    0.52532   0.86107   0.84105   1.000
    O45     O    0.58667   0.92676   0.83983   1.000
    Zr46    Zr   0.82537   0.66779   0.74998   1.000
    O47     O    0.77538   0.63877   0.65893   1.000
    O48     O    0.83673   0.57321   0.66013   1.000
    O49     O    0.77538   0.63877   0.84090   1.000
    O50     O    0.83673   0.57321   0.83982   1.000
    Zr51    Zr   0.32527   0.66793   0.74998   1.000
    O52     O    0.27521   0.63892   0.65887   1.000
    O53     O    0.33654   0.57336   0.66009   1.000
    O54     O    0.27521   0.63892   0.84108   1.000
    O55     O    0.33654   0.57336   0.83987   1.000
loop_
    _geom_bond_atom_site_label_1
    _geom_bond_atom_site_label_2
    _geom_bond_distance
    _geom_bond_site_symmetry_2
    _ccdc_geom_bond_type
    Zr16   O17       2.21023      .   S
    N7     O17       3.87480      .   S
    Zr16   O18       2.05381      .   S
    N4     O18       3.73901  1_556   S
    Zr16   O19       2.21014      .   S
    N11    O19       3.87453      .   S
    Zr16   O20       2.05370      .   S
    N15    O20       3.73870      .   S
    Zr21   O22       2.21169      .   S
    N2     O22       3.87718  1_565   S
    Zr21   O23       2.05372      .   S
    N13    O23       3.73872  1_455   S
    Zr21   O24       2.21174      .   S
    N3     O24       3.87734  1_565   S
    Zr21   O25       2.05378      .   S
    N9     O25       3.73889  1_456   S
    Zr26   O27       2.21081      .   S
    N8     O27       3.87567      .   S
    Zr26   O28       2.05481      .   S
    N12    O28       3.73958      .   S
    Zr26   O29       2.21114      .   S
    N5     O29       3.87668      .   S
    Zr26   O30       2.05519      .   S
    N0     O30       3.74069  1_556   S
    Zr31   O32       2.05511      .   S
    N10    O32       3.74312      .   S
    Zr31   O33       2.21133      .   S
    N14    O33       3.87925  1_565   S
    Zr31   O34       2.20990      .   S
    N6     O34       3.87492  1_565   S
    Zr31   O35       2.05356      .   S
    N1     O35       3.73862  1_556   S
    Zr36   O37       2.05359      .   S
    N2     O37       3.73658  1_655   S
    Zr36   O38       2.21132      .   S
    N13    O38       3.87419  1_545   S
    Zr36   O39       2.05456      .   S
    N3     O39       3.73938  1_654   S
    Zr36   O40       2.21216      .   S
    N9     O40       3.87691  1_545   S
    Zr41   O42       2.21055      .   S
    N10    O42       3.87504  1_545   S
    Zr41   O43       2.05458      .   S
    N14    O43       3.73967      .   S
    Zr41   O44       2.05481      .   S
    N6     O44       3.74032  1_554   S
    Zr41   O45       2.21074      .   S
    N1     O45       3.87563  1_545   S
    Zr46   O47       2.05376      .   S
    N8     O47       3.73886      .   S
    Zr46   O48       2.21043      .   S
    N12    O48       3.87542      .   S
    Zr46   O49       2.05136      .   S
    N5     O49       3.74014  1_554   S
    Zr46   O50       2.21017      .   S
    N0     O50       3.87463      .   S
    Zr51   O52       2.05522      .   S
    N11    O52       3.74043      .   S
    Zr51   O53       2.21086      .   S
    N15    O53       3.87582      .   S
    Zr51   O54       2.05513      .   S
    N7     O54       3.74051  1_554   S
    Zr51   O55       2.21085      .   S
    N4     O55       3.87579      .   S
