# CIF file generated by openbabel 2.4.90, see http://openbabel.sf.net
data_I
_chemical_name_common ''
_cell_length_a 17.233
_cell_length_b 17.256
_cell_length_c 17.407
_cell_angle_alpha 86.76
_cell_angle_beta 86.935
_cell_angle_gamma 89.302
_space_group_name_H-M_alt 'P 1'
_space_group_name_Hall 'P 1'
loop_
    _symmetry_equiv_pos_as_xyz
    x,y,z
loop_
    _atom_site_label
    _atom_site_type_symbol
    _atom_site_fract_x
    _atom_site_fract_y
    _atom_site_fract_z
    _atom_site_occupancy
    Zr0     Zr   0.07578   0.20998   0.66603   1.000
    Zr1     Zr   0.20669   0.08188   0.65958   1.000
    Zr2     Zr   0.07960   0.07641   0.80329   1.000
    Zr3     Zr   0.20625   0.20639   0.79347   1.000
    Zr4     Zr   0.79312   0.92684   0.33595   1.000
    Zr5     Zr   0.91996   0.79403   0.34002   1.000
    Zr6     Zr   0.92386   0.92340   0.19713   1.000
    Zr7     Zr   0.79395   0.79685   0.20699   1.000
    N8      N    0.12708   0.14751   0.23072   1.000
    O9      O    0.10731   0.17697   0.42042   1.000
    O10     O    0.15751   0.17508   0.03962   1.000
    O11     O    0.16097   0.11918   0.41787   1.000
    O12     O    0.10843   0.11465   0.04421   1.000
    N13     N    0.64182   0.12167   0.73261   1.000
    O14     O    0.45187   0.10703   0.69961   1.000
    O15     O    0.83271   0.10322   0.76464   1.000
    O16     O    0.83153   0.15727   0.70358   1.000
    O17     O    0.45117   0.15486   0.76048   1.000
    N18     N    0.35783   0.86967   0.27308   1.000
    O19     O    0.54830   0.83742   0.24742   1.000
    O20     O    0.54793   0.89566   0.29891   1.000
    O21     O    0.16674   0.83834   0.30227   1.000
    O22     O    0.16850   0.89064   0.23926   1.000
    N23     N    0.13581   0.64355   0.72727   1.000
    O24     O    0.10926   0.45422   0.70177   1.000
    O25     O    0.11368   0.83243   0.76104   1.000
    O26     O    0.16766   0.45268   0.75293   1.000
    O27     O    0.16531   0.83477   0.69778   1.000
    N28     N    0.85555   0.87234   0.76965   1.000
    O29     O    0.88360   0.83883   0.58224   1.000
    O30     O    0.82608   0.89293   0.58050   1.000
    O31     O    0.82709   0.84303   0.96067   1.000
    O32     O    0.88703   0.89284   0.95623   1.000
    N33     N    0.87878   0.36026   0.26717   1.000
    O34     O    0.84472   0.55111   0.23985   1.000
    O35     O    0.84513   0.17061   0.29769   1.000
    O36     O    0.89707   0.16976   0.23533   1.000
    O37     O    0.89447   0.54965   0.29956   1.000
    N38     N    0.14251   0.14353   0.73045   1.000
    O39     O    0.15856   0.12812   0.71273   1.000
    O40     O    0.12679   0.12675   0.74866   1.000
    O41     O    0.12583   0.16014   0.71434   1.000
    O42     O    0.15845   0.15925   0.74620   1.000
    N43     N    0.85754   0.85972   0.27016   1.000
    O44     O    0.84144   0.87650   0.28661   1.000
    O45     O    0.87315   0.84330   0.28762   1.000
    O46     O    0.84164   0.84400   0.25437   1.000
    O47     O    0.87412   0.87564   0.25190   1.000
loop_
    _geom_bond_atom_site_label_1
    _geom_bond_atom_site_label_2
    _geom_bond_distance
    _geom_bond_site_symmetry_2
    _ccdc_geom_bond_type
    N8     O9        3.36800      .   S
    Zr0    O9        4.34934      .   S
    N8     O10       3.34783      .   S
    Zr3    O10       4.32670  1_556   S
    N8     O11       3.34788      .   S
    Zr1    O11       4.33292      .   S
    N8     O12       3.36004      .   S
    Zr2    O12       4.33737  1_556   S
    N13    O14       3.36849      .   S
    Zr1    O14       4.34954      .   S
    N13    O15       3.37408      .   S
    Zr2    O15       4.35800  1_455   S
    N13    O16       3.34042      .   S
    Zr0    O16       4.32476  1_455   S
    N13    O17       3.34247      .   S
    Zr3    O17       4.31763      .   S
    N18    O19       3.33310      .   S
    Zr7    O19       4.30945      .   S
    N18    O20       3.36917      .   S
    Zr4    O20       4.35261      .   S
    N18    O21       3.35079      .   S
    Zr5    O21       4.33900  1_655   S
    N18    O22       3.35789      .   S
    Zr6    O22       4.34250  1_655   S
    N23    O24       3.36194      .   S
    Zr0    O24       4.34474      .   S
    N23    O25       3.35802      .   S
    Zr2    O25       4.34226  1_545   S
    N23    O26       3.34144      .   S
    Zr3    O26       4.31787      .   S
    N23    O27       3.35128      .   S
    Zr1    O27       4.34023  1_545   S
    N28    O29       3.35384      .   S
    Zr5    O29       4.34059      .   S
    N28    O30       3.35668      .   S
    Zr4    O30       4.33061      .   S
    N28    O31       3.34580      .   S
    Zr7    O31       4.32535  1_554   S
    N28    O32       3.36022      .   S
    Zr6    O32       4.33680  1_554   S
    N33    O34       3.35010      .   S
    Zr7    O34       4.33154      .   S
    N33    O35       3.33833      .   S
    Zr4    O35       4.31886  1_565   S
    N33    O36       3.37258      .   S
    Zr6    O36       4.35509  1_565   S
    N33    O37       3.36429      .   S
    Zr5    O37       4.34572      .   S
    N38    O39       0.49057      .   S
    Zr1    O39       1.47170      .   S
    N38    O40       0.49003      .   S
    Zr2    O40       1.47008      .   S
    N38    O41       0.49087      .   S
    Zr0    O41       1.47260      .   S
    N38    O42       0.49239      .   S
    Zr3    O42       1.47716      .   S
    N43    O44       0.49170      .   S
    Zr4    O44       1.47511      .   S
    N43    O45       0.49215      .   S
    Zr5    O45       1.47646      .   S
    N43    O46       0.49243      .   S
    Zr7    O46       1.47730      .   S
    N43    O47       0.49031      .   S
    Zr6    O47       1.47094      .   S
