# CIF file generated by openbabel 2.4.90, see http://openbabel.sf.net
data_I
_chemical_name_common ''
_cell_length_a 13.501
_cell_length_b 14.422
_cell_length_c 15.353
_cell_angle_alpha 89.961
_cell_angle_beta 90.056
_cell_angle_gamma 88.507
_space_group_name_H-M_alt 'P 1'
_space_group_name_Hall 'P 1'
loop_
    _symmetry_equiv_pos_as_xyz
    x,y,z
loop_
    _atom_site_label
    _atom_site_type_symbol
    _atom_site_fract_x
    _atom_site_fract_y
    _atom_site_fract_z
    _atom_site_occupancy
    N0      N    0.67564   0.65730   0.16155   1.000
    N1      N    0.82472   0.34250   0.66169   1.000
    N2      N    0.32666   0.16283   0.33669   1.000
    N3      N    0.17368   0.83658   0.83625   1.000
    Zr4     Zr   0.32142   0.83233   0.16313   1.000
    O5      O    0.28689   0.83235   0.06422   1.000
    O6      O    0.42942   0.78889   0.16547   1.000
    O7      O    0.32009   0.93309   0.20787   1.000
    Zr8     Zr   0.04195   0.03942   0.55561   1.000
    O9      O    0.97384   0.12628   0.58370   1.000
    O10     O    0.12355   0.07118   0.48790   1.000
    O11     O    0.07741   0.97643   0.63639   1.000
    Zr12    Zr   0.17897   0.16457   0.66318   1.000
    O13     O    0.07097   0.20907   0.66559   1.000
    O14     O    0.21357   0.16558   0.56440   1.000
    O15     O    0.18034   0.06449   0.70742   1.000
    Zr16    Zr   0.53715   0.46041   0.44098   1.000
    O17     O    0.57496   0.52142   0.36032   1.000
    O18     O    0.47082   0.37556   0.41309   1.000
    O19     O    0.61910   0.43135   0.50964   1.000
    Zr20    Zr   0.67906   0.32748   0.34018   1.000
    O21     O    0.68096   0.42766   0.29331   1.000
    O22     O    0.71192   0.33174   0.43772   1.000
    O23     O    0.57162   0.28683   0.33600   1.000
    Zr24    Zr   0.96306   0.53957   0.94106   1.000
    O25     O    0.88115   0.56856   0.00965   1.000
    O26     O    0.92531   0.47851   0.86043   1.000
    O27     O    0.02953   0.62418   0.91303   1.000
    Zr28    Zr   0.82097   0.67248   0.84017   1.000
    O29     O    0.78822   0.66817   0.93768   1.000
    O30     O    0.81921   0.57226   0.79331   1.000
    O31     O    0.92851   0.71296   0.83595   1.000
    Zr32    Zr   0.45793   0.96036   0.05570   1.000
    O33     O    0.52620   0.87353   0.08369   1.000
    O34     O    0.42246   0.02320   0.13657   1.000
    O35     O    0.37644   0.92860   0.98783   1.000
loop_
    _geom_bond_atom_site_label_1
    _geom_bond_atom_site_label_2
    _geom_bond_distance
    _geom_bond_site_symmetry_2
    _ccdc_geom_bond_type
    Zr4    O5        1.58808      .   S
    N3     O5        3.81759  1_556   S
    Zr4    O6        1.57226      .   S
    N0     O6        3.78517      .   S
    Zr4    O7        1.60745      .   S
    N2     O7        3.86281  1_545   S
    Zr8    O9        1.59443  1_455   S
    N1     O9        3.85922      .   S
    Zr8    O10       1.59115      .   S
    N2     O10       3.85401      .   S
    Zr8    O11       1.60221  1_545   S
    N3     O11       3.87566      .   S
    Zr12   O13       1.57816      .   S
    N1     O13       3.79813  1_655   S
    Zr12   O14       1.58746      .   S
    N2     O14       3.81605      .   S
    Zr12   O15       1.59449      .   S
    N3     O15       3.83809  1_565   S
    Zr16   O17       1.60978      .   S
    N0     O17       3.89109      .   S
    Zr16   O18       1.59370      .   S
    N2     O18       3.85851      .   S
    Zr16   O19       1.57603      .   S
    N1     O19       3.82053      .   S
    Zr20   O21       1.61443      .   S
    N0     O21       3.87877      .   S
    Zr20   O22       1.56318      .   S
    N1     O22       3.76430      .   S
    Zr20   O23       1.57990      .   S
    N2     O23       3.80061      .   S
    Zr24   O25       1.57650  1_556   S
    N0     O25       3.82188      .   S
    Zr24   O26       1.60972      .   S
    N1     O26       3.89115      .   S
    Zr24   O27       1.59269  1_655   S
    N3     O27       3.85628      .   S
    Zr28   O29       1.56309      .   S
    N0     O29       3.76429  1_554   S
    Zr28   O30       1.61570      .   S
    N1     O30       3.88145      .   S
    Zr28   O31       1.58024      .   S
    N3     O31       3.80037  1_455   S
    Zr32   O33       1.59403      .   S
    N0     O33       3.85829      .   S
    Zr32   O34       1.60381  1_565   S
    N2     O34       3.87928      .   S
    Zr32   O35       1.59085  1_554   S
    N3     O35       3.85376      .   S
