# CIF file generated by openbabel 2.4.90, see http://openbabel.sf.net
data_I
_chemical_name_common 'VESTA_phase_1'
_cell_length_a 20.211
_cell_length_b 23.023
_cell_length_c 14.943
_cell_angle_alpha 91.186
_cell_angle_beta 89.997
_cell_angle_gamma 89.948
_space_group_name_H-M_alt 'P 1'
_space_group_name_Hall 'P 1'
loop_
    _symmetry_equiv_pos_as_xyz
    x,y,z
loop_
    _atom_site_label
    _atom_site_type_symbol
    _atom_site_fract_x
    _atom_site_fract_y
    _atom_site_fract_z
    _atom_site_occupancy
    Zn0     Zn   0.46392   0.37759   0.13166   1.000
    Zn1     Zn   0.46392   0.87759   0.13166   1.000
    Zn2     Zn   0.96391   0.37759   0.13166   1.000
    Zn3     Zn   0.96391   0.87759   0.13166   1.000
    Zn4     Zn   0.05860   0.37020   0.30875   1.000
    Zn5     Zn   0.05861   0.87020   0.30875   1.000
    Zn6     Zn   0.55859   0.37020   0.30875   1.000
    Zn7     Zn   0.55860   0.87020   0.30875   1.000
    Zn8     Zn   0.21392   0.37244   0.36836   1.000
    Zn9     Zn   0.21392   0.87245   0.36836   1.000
    Zn10    Zn   0.71391   0.37244   0.36836   1.000
    Zn11    Zn   0.71391   0.87245   0.36836   1.000
    Zn12    Zn   0.30858   0.37983   0.19124   1.000
    Zn13    Zn   0.30859   0.87984   0.19124   1.000
    Zn14    Zn   0.80857   0.37983   0.19124   1.000
    Zn15    Zn   0.80857   0.87984   0.19124   1.000
    Zn16    Zn   0.03607   0.12242   0.86834   1.000
    Zn17    Zn   0.03607   0.62243   0.86834   1.000
    Zn18    Zn   0.53606   0.12242   0.86834   1.000
    Zn19    Zn   0.53606   0.62243   0.86834   1.000
    Zn20    Zn   0.44138   0.12981   0.69125   1.000
    Zn21    Zn   0.44139   0.62982   0.69125   1.000
    Zn22    Zn   0.94137   0.12981   0.69125   1.000
    Zn23    Zn   0.94137   0.62982   0.69125   1.000
    Zn24    Zn   0.28607   0.12757   0.63164   1.000
    Zn25    Zn   0.28607   0.62757   0.63164   1.000
    Zn26    Zn   0.78606   0.12757   0.63164   1.000
    Zn27    Zn   0.78606   0.62757   0.63164   1.000
    Zn28    Zn   0.19140   0.12018   0.80876   1.000
    Zn29    Zn   0.19141   0.62018   0.80876   1.000
    Zn30    Zn   0.69139   0.12018   0.80876   1.000
    Zn31    Zn   0.69139   0.62018   0.80876   1.000
    Zn32    Zn   0.00000   0.25000   0.00000   1.000
    Zn33    Zn   0.00000   0.75001   0.00000   1.000
    Zn34    Zn   0.49999   0.25000   0.00000   1.000
    Zn35    Zn   0.49999   0.75001   0.00000   1.000
    Zn36    Zn   0.24999   0.00000   0.50000   1.000
    Zn37    Zn   0.25000   0.50001   0.50000   1.000
    Zn38    Zn   0.74998   0.00000   0.50000   1.000
    Zn39    Zn   0.74998   0.50001   0.50000   1.000
    Zn40    Zn   0.00000   0.00000   0.00000   1.000
    Zn41    Zn   0.99998   0.50001   0.00000   1.000
    Zn42    Zn   0.49999   0.00000   0.00000   1.000
    Zn43    Zn   0.49999   0.50001   0.00000   1.000
    Zn44    Zn   0.24999   0.25000   0.50000   1.000
    Zn45    Zn   0.25000   0.75001   0.50000   1.000
    Zn46    Zn   0.74998   0.25000   0.50000   1.000
    Zn47    Zn   0.74998   0.75001   0.50000   1.000
    H48     H    0.37879   0.42924   0.37155   1.000
    H49     H    0.37879   0.92924   0.37150   1.000
    H50     H    0.87878   0.42924   0.37150   1.000
    H51     H    0.87878   0.92924   0.37156   1.000
    H52     H    0.02804   0.23654   0.26827   1.000
    H53     H    0.02805   0.73654   0.26827   1.000
    H54     H    0.52803   0.23654   0.26827   1.000
    H55     H    0.52803   0.73654   0.26827   1.000
    H56     H    0.30451   0.28000   0.04717   1.000
    H57     H    0.30451   0.78001   0.04717   1.000
    H58     H    0.80450   0.28000   0.04717   1.000
    H59     H    0.80450   0.78000   0.04717   1.000
    H60     H    0.10530   0.49043   0.23035   1.000
    H61     H    0.10530   0.99043   0.23035   1.000
    H62     H    0.60529   0.49043   0.23035   1.000
    H63     H    0.60529   0.99043   0.23035   1.000
    H64     H    0.08091   0.34408   0.92165   1.000
    H65     H    0.08091   0.84409   0.92165   1.000
    H66     H    0.58089   0.34408   0.92164   1.000
    H67     H    0.58090   0.84409   0.92165   1.000
    H68     H    0.35416   0.00123   0.01225   1.000
    H69     H    0.35416   0.50123   0.01225   1.000
    H70     H    0.85414   0.00122   0.01225   1.000
    H71     H    0.85415   0.50123   0.01225   1.000
    H72     H    0.12889   0.32077   0.12840   1.000
    H73     H    0.12889   0.82078   0.12840   1.000
    H74     H    0.62887   0.32077   0.12848   1.000
    H75     H    0.62888   0.82078   0.12840   1.000
    H76     H    0.27793   0.01345   0.23170   1.000
    H77     H    0.27793   0.51345   0.23170   1.000
    H78     H    0.77792   0.01345   0.23170   1.000
    H79     H    0.77792   0.51345   0.23171   1.000
    H80     H    0.05448   0.47023   0.45281   1.000
    H81     H    0.05448   0.97024   0.45281   1.000
    H82     H    0.55446   0.47023   0.45281   1.000
    H83     H    0.55447   0.97024   0.45281   1.000
    H84     H    0.35534   0.25949   0.26965   1.000
    H85     H    0.35535   0.75950   0.26965   1.000
    H86     H    0.85533   0.25949   0.26965   1.000
    H87     H    0.85534   0.75950   0.26965   1.000
    H88     H    0.33092   0.40583   0.57829   1.000
    H89     H    0.33093   0.90584   0.57829   1.000
    H90     H    0.83091   0.40583   0.57829   1.000
    H91     H    0.83091   0.90584   0.57829   1.000
    H92     H    0.10427   0.24888   0.48785   1.000
    H93     H    0.10427   0.74889   0.48785   1.000
    H94     H    0.60426   0.24888   0.48785   1.000
    H95     H    0.60426   0.74889   0.48785   1.000
    H96     H    0.12120   0.07077   0.62845   1.000
    H97     H    0.12120   0.57078   0.62845   1.000
    H98     H    0.62119   0.07077   0.62845   1.000
    H99     H    0.62119   0.57078   0.62845   1.000
    H100    H    0.47194   0.26347   0.73173   1.000
    H101    H    0.47195   0.76348   0.73173   1.000
    H102    H    0.97194   0.26347   0.73173   1.000
    H103    H    0.97193   0.76348   0.73173   1.000
    H104    H    0.19548   0.22001   0.95283   1.000
    H105    H    0.19548   0.72001   0.95283   1.000
    H106    H    0.69547   0.22001   0.95283   1.000
    H107    H    0.69547   0.72001   0.95283   1.000
    H108    H    0.39469   0.00958   0.76965   1.000
    H109    H    0.39469   0.50958   0.76965   1.000
    H110    H    0.89468   0.00958   0.76965   1.000
    H111    H    0.89468   0.50959   0.76965   1.000
    H112    H    0.41908   0.15592   0.07835   1.000
    H113    H    0.41908   0.65593   0.07830   1.000
    H114    H    0.91907   0.15592   0.07836   1.000
    H115    H    0.91907   0.65593   0.07836   1.000
    H116    H    0.14583   0.49878   0.98775   1.000
    H117    H    0.14584   0.99879   0.98775   1.000
    H118    H    0.64582   0.49878   0.98775   1.000
    H119    H    0.64582   0.99879   0.98775   1.000
    H120    H    0.37110   0.17924   0.87152   1.000
    H121    H    0.37110   0.67924   0.87152   1.000
    H122    H    0.87109   0.17924   0.87152   1.000
    H123    H    0.87109   0.67924   0.87152   1.000
    H124    H    0.22205   0.48656   0.76830   1.000
    H125    H    0.22206   0.98656   0.76830   1.000
    H126    H    0.72204   0.48656   0.76830   1.000
    H127    H    0.72205   0.98657   0.76830   1.000
    H128    H    0.44551   0.02978   0.54719   1.000
    H129    H    0.44551   0.52978   0.54719   1.000
    H130    H    0.94550   0.02977   0.54719   1.000
    H131    H    0.94550   0.52978   0.54719   1.000
    H132    H    0.14464   0.24052   0.73035   1.000
    H133    H    0.14465   0.74052   0.73035   1.000
    H134    H    0.64463   0.24052   0.73035   1.000
    H135    H    0.64463   0.74052   0.73035   1.000
    H136    H    0.16906   0.09418   0.42171   1.000
    H137    H    0.16907   0.59418   0.42171   1.000
    H138    H    0.66905   0.09418   0.42171   1.000
    H139    H    0.66906   0.59418   0.42171   1.000
    H140    H    0.39572   0.25113   0.51210   1.000
    H141    H    0.39572   0.75113   0.51210   1.000
    H142    H    0.89571   0.25113   0.51216   1.000
    H143    H    0.89571   0.75113   0.51216   1.000
    C144    C    0.41934   0.41308   0.32828   1.000
    C145    C    0.41934   0.91308   0.32828   1.000
    C146    C    0.91933   0.41308   0.32828   1.000
    C147    C    0.91933   0.91308   0.32828   1.000
    C148    C    0.01350   0.25934   0.20690   1.000
    C149    C    0.01351   0.75934   0.20690   1.000
    C150    C    0.51349   0.25934   0.20690   1.000
    C151    C    0.51349   0.75934   0.20690   1.000
    C152    C    0.35835   0.28754   0.05350   1.000
    C153    C    0.35835   0.78754   0.05354   1.000
    C154    C    0.85833   0.28754   0.05354   1.000
    C155    C    0.85834   0.78754   0.05350   1.000
    C156    C    0.06860   0.47586   0.17967   1.000
    C157    C    0.06861   0.97586   0.17967   1.000
    C158    C    0.56859   0.47586   0.17967   1.000
    C159    C    0.56860   0.97586   0.17967   1.000
    C160    C    0.05052   0.37145   0.96703   1.000
    C161    C    0.05052   0.87146   0.96703   1.000
    C162    C    0.55051   0.37145   0.96703   1.000
    C163    C    0.55051   0.87146   0.96703   1.000
    C164    C    0.36318   0.46491   0.05758   1.000
    C165    C    0.36319   0.96492   0.05758   1.000
    C166    C    0.86317   0.46491   0.05758   1.000
    C167    C    0.86318   0.96492   0.05758   1.000
    C168    C    0.16940   0.33695   0.17170   1.000
    C169    C    0.16941   0.83695   0.17170   1.000
    C170    C    0.66939   0.33695   0.17170   1.000
    C171    C    0.66939   0.83695   0.17170   1.000
    C172    C    0.26343   0.49067   0.29309   1.000
    C173    C    0.26343   0.99068   0.29309   1.000
    C174    C    0.76342   0.49067   0.29300   1.000
    C175    C    0.76342   0.99068   0.29309   1.000
    C176    C    0.10831   0.46263   0.44642   1.000
    C177    C    0.10832   0.96263   0.44642   1.000
    C178    C    0.60830   0.46263   0.44642   1.000
    C179    C    0.60831   0.96263   0.44642   1.000
    C180    C    0.31863   0.27411   0.32032   1.000
    C181    C    0.31863   0.77412   0.32032   1.000
    C182    C    0.81862   0.27411   0.32032   1.000
    C183    C    0.81862   0.77412   0.32032   1.000
    C184    C    0.30052   0.37851   0.53294   1.000
    C185    C    0.30052   0.87851   0.53294   1.000
    C186    C    0.80051   0.37851   0.53294   1.000
    C187    C    0.80051   0.87851   0.53294   1.000
    C188    C    0.11324   0.28517   0.44247   1.000
    C189    C    0.11325   0.78517   0.44247   1.000
    C190    C    0.61323   0.28517   0.44247   1.000
    C191    C    0.61323   0.78517   0.44247   1.000
    C192    C    0.08065   0.08693   0.67172   1.000
    C193    C    0.08065   0.58694   0.67172   1.000
    C194    C    0.58064   0.08693   0.67172   1.000
    C195    C    0.58064   0.58694   0.67172   1.000
    C196    C    0.48648   0.24067   0.79310   1.000
    C197    C    0.48649   0.74068   0.79310   1.000
    C198    C    0.98647   0.24067   0.79310   1.000
    C199    C    0.98648   0.74068   0.79310   1.000
    C200    C    0.14164   0.21247   0.94646   1.000
    C201    C    0.14165   0.71247   0.94646   1.000
    C202    C    0.64163   0.21247   0.94646   1.000
    C203    C    0.64163   0.71247   0.94646   1.000
    C204    C    0.43138   0.02415   0.82033   1.000
    C205    C    0.43139   0.52416   0.82033   1.000
    C206    C    0.93137   0.02415   0.82033   1.000
    C207    C    0.93137   0.52416   0.82033   1.000
    C208    C    0.44947   0.12855   0.03297   1.000
    C209    C    0.44947   0.62856   0.03297   1.000
    C210    C    0.94946   0.12855   0.03297   1.000
    C211    C    0.94946   0.62856   0.03297   1.000
    C212    C    0.13680   0.03510   0.94242   1.000
    C213    C    0.13681   0.53510   0.94242   1.000
    C214    C    0.63679   0.03510   0.94242   1.000
    C215    C    0.63679   0.53510   0.94242   1.000
    C216    C    0.33059   0.16306   0.82827   1.000
    C217    C    0.33059   0.66307   0.82827   1.000
    C218    C    0.83057   0.16306   0.82827   1.000
    C219    C    0.83058   0.66307   0.82827   1.000
    C220    C    0.23656   0.00933   0.70691   1.000
    C221    C    0.23656   0.50934   0.70691   1.000
    C222    C    0.73654   0.00933   0.70691   1.000
    C223    C    0.73655   0.50934   0.70691   1.000
    C224    C    0.39167   0.03738   0.55358   1.000
    C225    C    0.39167   0.53739   0.55358   1.000
    C226    C    0.89166   0.03738   0.55358   1.000
    C227    C    0.89166   0.53739   0.55358   1.000
    C228    C    0.18136   0.22590   0.67968   1.000
    C229    C    0.18136   0.72590   0.67968   1.000
    C230    C    0.68134   0.22590   0.67968   1.000
    C231    C    0.68135   0.72590   0.67968   1.000
    C232    C    0.19947   0.12150   0.46706   1.000
    C233    C    0.19947   0.62151   0.46706   1.000
    C234    C    0.69946   0.12150   0.46706   1.000
    C235    C    0.69946   0.62151   0.46706   1.000
    C236    C    0.38674   0.21484   0.55754   1.000
    C237    C    0.38675   0.71485   0.55754   1.000
    C238    C    0.88673   0.21484   0.55754   1.000
    C239    C    0.88673   0.71485   0.55754   1.000
    O240    O    0.40479   0.40209   0.24605   1.000
    O241    O    0.40480   0.90210   0.24605   1.000
    O242    O    0.90478   0.40209   0.24605   1.000
    O243    O    0.90478   0.90210   0.24605   1.000
    O244    O    0.47530   0.40770   0.36406   1.000
    O245    O    0.47530   0.90771   0.36406   1.000
    O246    O    0.97529   0.40770   0.36406   1.000
    O247    O    0.97529   0.90771   0.36406   1.000
    O248    O    0.00905   0.31500   0.21486   1.000
    O249    O    0.00905   0.81500   0.21486   1.000
    O250    O    0.50904   0.31500   0.21486   1.000
    O251    O    0.50904   0.81500   0.21486   1.000
    O252    O    0.00280   0.22969   0.13730   1.000
    O253    O    0.00280   0.72970   0.13730   1.000
    O254    O    0.50279   0.22969   0.13730   1.000
    O255    O    0.50279   0.72970   0.13730   1.000
    O256    O    0.37546   0.32567   0.11352   1.000
    O257    O    0.37547   0.82568   0.11350   1.000
    O258    O    0.87545   0.32567   0.11350   1.000
    O259    O    0.87545   0.82567   0.11350   1.000
    O260    O    0.39622   0.25860   0.00342   1.000
    O261    O    0.39622   0.75860   0.00342   1.000
    O262    O    0.89621   0.25860   0.00342   1.000
    O263    O    0.89621   0.75860   0.00342   1.000
    O264    O    0.04425   0.42501   0.19147   1.000
    O265    O    0.04425   0.92502   0.19147   1.000
    O266    O    0.54424   0.42501   0.19147   1.000
    O267    O    0.54424   0.92502   0.19147   1.000
    O268    O    0.05555   0.00981   0.11778   1.000
    O269    O    0.05555   0.50982   0.11778   1.000
    O270    O    0.55554   0.00981   0.11778   1.000
    O271    O    0.55554   0.50982   0.11778   1.000
    O272    O    0.01383   0.34308   0.02203   1.000
    O273    O    0.01383   0.84309   0.02203   1.000
    O274    O    0.51382   0.34308   0.02200   1.000
    O275    O    0.51382   0.84309   0.02203   1.000
    O276    O    0.05517   0.42531   0.96141   1.000
    O277    O    0.05517   0.92531   0.96141   1.000
    O278    O    0.55516   0.42531   0.96141   1.000
    O279    O    0.55516   0.92531   0.96141   1.000
    O280    O    0.42384   0.44803   0.06323   1.000
    O281    O    0.42385   0.94804   0.06323   1.000
    O282    O    0.92383   0.44803   0.06323   1.000
    O283    O    0.92383   0.94804   0.06323   1.000
    O284    O    0.31420   0.44464   0.09798   1.000
    O285    O    0.31420   0.94464   0.09798   1.000
    O286    O    0.81419   0.44464   0.09798   1.000
    O287    O    0.81419   0.94464   0.09798   1.000
    O288    O    0.15485   0.34792   0.25397   1.000
    O289    O    0.15485   0.84793   0.25397   1.000
    O290    O    0.65483   0.34792   0.25397   1.000
    O291    O    0.65484   0.84793   0.25397   1.000
    O292    O    0.22535   0.34234   0.13594   1.000
    O293    O    0.22535   0.84235   0.13594   1.000
    O294    O    0.72533   0.34234   0.13594   1.000
    O295    O    0.72534   0.84235   0.13594   1.000
    O296    O    0.25893   0.43502   0.28512   1.000
    O297    O    0.25893   0.93503   0.28512   1.000
    O298    O    0.75892   0.43502   0.28512   1.000
    O299    O    0.75892   0.93503   0.28512   1.000
    O300    O    0.25281   0.02032   0.36266   1.000
    O301    O    0.25282   0.52033   0.36266   1.000
    O302    O    0.75280   0.02032   0.36266   1.000
    O303    O    0.75280   0.52033   0.36266   1.000
    O304    O    0.12543   0.42441   0.38652   1.000
    O305    O    0.12543   0.92441   0.38652   1.000
    O306    O    0.62542   0.42441   0.38652   1.000
    O307    O    0.62542   0.92441   0.38652   1.000
    O308    O    0.14618   0.49159   0.49644   1.000
    O309    O    0.14619   0.99160   0.49644   1.000
    O310    O    0.64617   0.49159   0.49644   1.000
    O311    O    0.64617   0.99160   0.49644   1.000
    O312    O    0.29427   0.32500   0.30850   1.000
    O313    O    0.29428   0.82500   0.30850   1.000
    O314    O    0.79426   0.32500   0.30850   1.000
    O315    O    0.79426   0.82500   0.30850   1.000
    O316    O    0.30556   0.24017   0.38220   1.000
    O317    O    0.30556   0.74017   0.38220   1.000
    O318    O    0.80555   0.24017   0.38220   1.000
    O319    O    0.80555   0.74017   0.38220   1.000
    O320    O    0.26382   0.40693   0.47790   1.000
    O321    O    0.26383   0.90693   0.47790   1.000
    O322    O    0.76381   0.40693   0.47792   1.000
    O323    O    0.76382   0.90693   0.47790   1.000
    O324    O    0.30514   0.32465   0.53860   1.000
    O325    O    0.30514   0.82465   0.53860   1.000
    O326    O    0.80512   0.32465   0.53860   1.000
    O327    O    0.80513   0.82465   0.53860   1.000
    O328    O    0.17387   0.30203   0.43680   1.000
    O329    O    0.17388   0.80204   0.43680   1.000
    O330    O    0.67386   0.30203   0.43680   1.000
    O331    O    0.67386   0.80204   0.43680   1.000
    O332    O    0.06424   0.30542   0.40201   1.000
    O333    O    0.06424   0.80543   0.40201   1.000
    O334    O    0.56422   0.30542   0.40201   1.000
    O335    O    0.56423   0.80543   0.40201   1.000
    O336    O    0.09519   0.09791   0.75395   1.000
    O337    O    0.09520   0.59792   0.75395   1.000
    O338    O    0.59518   0.09791   0.75395   1.000
    O339    O    0.59518   0.59792   0.75395   1.000
    O340    O    0.02469   0.09231   0.63590   1.000
    O341    O    0.02469   0.59231   0.63594   1.000
    O342    O    0.52467   0.09231   0.63594   1.000
    O343    O    0.52468   0.59231   0.63594   1.000
    O344    O    0.49094   0.18501   0.78515   1.000
    O345    O    0.49094   0.68502   0.78515   1.000
    O346    O    0.99092   0.18501   0.78515   1.000
    O347    O    0.99093   0.68502   0.78515   1.000
    O348    O    0.49719   0.27032   0.86264   1.000
    O349    O    0.49719   0.77032   0.86264   1.000
    O350    O    0.99718   0.27032   0.86264   1.000
    O351    O    0.99718   0.77032   0.86264   1.000
    O352    O    0.12452   0.17434   0.88648   1.000
    O353    O    0.12453   0.67434   0.88648   1.000
    O354    O    0.62451   0.17434   0.88648   1.000
    O355    O    0.62452   0.67434   0.88648   1.000
    O356    O    0.10377   0.24141   0.99659   1.000
    O357    O    0.10377   0.74141   0.99659   1.000
    O358    O    0.60376   0.24141   0.99650   1.000
    O359    O    0.60376   0.74142   0.99659   1.000
    O360    O    0.45574   0.07500   0.80853   1.000
    O361    O    0.45574   0.57500   0.80853   1.000
    O362    O    0.95573   0.07500   0.80853   1.000
    O363    O    0.95573   0.57500   0.80853   1.000
    O364    O    0.44444   0.49020   0.88223   1.000
    O365    O    0.44444   0.99020   0.88223   1.000
    O366    O    0.94443   0.49020   0.88223   1.000
    O367    O    0.94443   0.99020   0.88223   1.000
    O368    O    0.48616   0.15693   0.97798   1.000
    O369    O    0.48616   0.65693   0.97798   1.000
    O370    O    0.98615   0.15693   0.97798   1.000
    O371    O    0.98615   0.65693   0.97798   1.000
    O372    O    0.44482   0.07470   0.03859   1.000
    O373    O    0.44482   0.57471   0.03859   1.000
    O374    O    0.94481   0.07470   0.03859   1.000
    O375    O    0.94481   0.57471   0.03859   1.000
    O376    O    0.07614   0.05198   0.93677   1.000
    O377    O    0.07615   0.55198   0.93677   1.000
    O378    O    0.57613   0.05198   0.93677   1.000
    O379    O    0.57614   0.55198   0.93677   1.000
    O380    O    0.18579   0.05537   0.90202   1.000
    O381    O    0.18579   0.55538   0.90202   1.000
    O382    O    0.68578   0.05537   0.90202   1.000
    O383    O    0.68578   0.55538   0.90202   1.000
    O384    O    0.34514   0.15209   0.74603   1.000
    O385    O    0.34514   0.65209   0.74603   1.000
    O386    O    0.84513   0.15209   0.74603   1.000
    O387    O    0.84513   0.65209   0.74603   1.000
    O388    O    0.27464   0.15767   0.86407   1.000
    O389    O    0.27464   0.65768   0.86407   1.000
    O390    O    0.77463   0.15767   0.86400   1.000
    O391    O    0.77463   0.65767   0.86407   1.000
    O392    O    0.24106   0.06498   0.71488   1.000
    O393    O    0.24106   0.56499   0.71488   1.000
    O394    O    0.74105   0.06498   0.71488   1.000
    O395    O    0.74105   0.56499   0.71488   1.000
    O396    O    0.24717   0.47968   0.63734   1.000
    O397    O    0.24718   0.97969   0.63734   1.000
    O398    O    0.74716   0.47968   0.63734   1.000
    O399    O    0.74717   0.97969   0.63734   1.000
    O400    O    0.37456   0.07560   0.61349   1.000
    O401    O    0.37456   0.57561   0.61349   1.000
    O402    O    0.87455   0.07560   0.61349   1.000
    O403    O    0.87455   0.57561   0.61349   1.000
    O404    O    0.35380   0.00842   0.50356   1.000
    O405    O    0.35381   0.50842   0.50356   1.000
    O406    O    0.85379   0.00842   0.50356   1.000
    O407    O    0.85380   0.50842   0.50356   1.000
    O408    O    0.20571   0.17501   0.69148   1.000
    O409    O    0.20572   0.67502   0.69148   1.000
    O410    O    0.70570   0.17501   0.69148   1.000
    O411    O    0.70571   0.67502   0.69148   1.000
    O412    O    0.19443   0.25984   0.61780   1.000
    O413    O    0.19443   0.75985   0.61780   1.000
    O414    O    0.69442   0.25984   0.61780   1.000
    O415    O    0.69442   0.75985   0.61780   1.000
    O416    O    0.23616   0.09308   0.52208   1.000
    O417    O    0.23617   0.59309   0.52208   1.000
    O418    O    0.73615   0.09308   0.52208   1.000
    O419    O    0.73615   0.59309   0.52208   1.000
    O420    O    0.19485   0.17536   0.46140   1.000
    O421    O    0.19485   0.67537   0.46140   1.000
    O422    O    0.69484   0.17536   0.46140   1.000
    O423    O    0.69484   0.67537   0.46140   1.000
    O424    O    0.32611   0.19798   0.56320   1.000
    O425    O    0.32612   0.69798   0.56320   1.000
    O426    O    0.82610   0.19798   0.56320   1.000
    O427    O    0.82611   0.69798   0.56320   1.000
    O428    O    0.43575   0.19459   0.59799   1.000
    O429    O    0.43576   0.69459   0.59799   1.000
    O430    O    0.93574   0.19459   0.59799   1.000
    O431    O    0.93574   0.69459   0.59799   1.000
loop_
    _geom_bond_atom_site_label_1
    _geom_bond_atom_site_label_2
    _geom_bond_distance
    _geom_bond_site_symmetry_2
    _ccdc_geom_bond_type
    Zn32   O262      2.10737  1_455   S
    Zn32   O252      2.11446      .   S
    Zn32   O350      2.11536  1_454   S
    Zn32   O356      2.10686  1_554   S
    Zn33   O263      2.10739  1_455   S
    Zn33   O253      2.11446      .   S
    Zn33   O351      2.11536  1_454   S
    Zn33   O357      2.10684  1_554   S
    Zn43   O373      2.11874      .   S
    Zn43   O271      2.09601      .   S
    Zn43   O364      2.09591  1_554   S
    Zn43   O278      2.11865  1_554   S
    Zn42   O372      2.11874      .   S
    Zn42   O270      2.09601      .   S
    Zn42   O365      2.09582  1_544   S
    Zn42   O279      2.11849  1_544   S
    Zn41   O375      2.11873      .   S
    Zn41   O269      2.09626  1_655   S
    Zn41   O366      2.09590  1_554   S
    Zn41   O276      2.11890  1_654   S
    Zn40   O374      2.11898  1_455   S
    Zn40   O268      2.09600      .   S
    Zn40   O367      2.09607  1_444   S
    Zn40   O277      2.11850  1_544   S
    Zn35   O261      2.10691      .   S
    Zn35   O255      2.11446      .   S
    Zn35   O349      2.11535  1_554   S
    Zn35   O359      2.10686  1_554   S
    Zn34   O260      2.10692      .   S
    Zn34   O254      2.11446      .   S
    Zn34   O348      2.11534  1_554   S
    Zn34   O358      2.10687  1_554   S
    O263   C155      1.25235      .   S
    O262   C154      1.25271      .   S
    O261   C153      1.25270      .   S
    O260   C152      1.25236      .   S
    H69    C164      1.10207      .   S
    H70    C167      1.10186  1_545   S
    H71    C166      1.10205      .   S
    H68    C165      1.10186  1_545   S
    O274   Zn0       2.06827      .   S
    O274   C162      1.29394  1_554   S
    O275   Zn1       2.06792      .   S
    O275   C163      1.29424  1_554   S
    O273   Zn3       2.06816  1_455   S
    O273   C161      1.29425  1_554   S
    O272   Zn2       2.06815  1_455   S
    O272   C160      1.29424  1_554   S
    C208   O372      1.24806      .   S
    C208   H112      1.10258      .   S
    C208   O368      1.29417  1_554   S
    C209   O373      1.24806      .   S
    C209   H113      1.10213      .   S
    C209   O369      1.29416  1_554   S
    C210   O374      1.24806      .   S
    C210   H114      1.10265      .   S
    C210   O370      1.29415  1_554   S
    C211   O375      1.24806      .   S
    C211   H115      1.10265      .   S
    C211   O371      1.29416  1_554   S
    H58    C154      1.10576      .   S
    H57    C153      1.10576      .   S
    H59    C155      1.10574      .   S
    H56    C152      1.10574      .   S
    C155   O259      1.28930      .   S
    C152   O256      1.28950      .   S
    C154   O258      1.28886      .   S
    C153   O257      1.28888      .   S
    C167   O283      1.28907      .   S
    C167   O287      1.25496      .   S
    C166   O282      1.28905      .   S
    C166   O286      1.25496      .   S
    C165   O281      1.28906      .   S
    C165   O285      1.25497      .   S
    C164   O280      1.28907      .   S
    C164   O284      1.25496      .   S
    O281   Zn1       2.09720      .   S
    O283   Zn3       2.09720      .   S
    O282   Zn2       2.09720      .   S
    O280   Zn0       2.09720      .   S
    O286   Zn14      2.06577      .   S
    O287   Zn15      2.06577      .   S
    O285   Zn13      2.06575      .   S
    O284   Zn12      2.06577      .   S
    O257   Zn13      2.16065      .   S
    O258   Zn14      2.16062      .   S
    O259   Zn15      2.16065      .   S
    O256   Zn12      2.16049      .   S
    O271   C158      1.25132      .   S
    O270   C159      1.25117  1_545   S
    O269   C156      1.25133      .   S
    O268   C157      1.25118  1_545   S
    H75    C171      1.10388      .   S
    H73    C169      1.10389      .   S
    H72    C168      1.10389      .   S
    H74    C170      1.10318      .   S
    Zn0    O266      2.14222      .   S
    Zn0    O240      2.15100      .   S
    Zn3    O265      2.14259  1_655   S
    Zn3    O243      2.15100      .   S
    Zn2    O264      2.14259  1_655   S
    Zn2    O242      2.15099      .   S
    Zn1    O267      2.14224      .   S
    Zn1    O241      2.15099      .   S
    O292   C168      1.25789      .   S
    O292   Zn12      2.05704      .   S
    O293   C169      1.25789      .   S
    O293   Zn13      2.05705      .   S
    O294   C170      1.25791      .   S
    O294   Zn14      2.05704      .   S
    O295   C171      1.25789      .   S
    O295   Zn15      2.05704      .   S
    O254   C150      1.25109      .   S
    O255   C151      1.25110      .   S
    O253   C149      1.25110      .   S
    O252   C148      1.25110      .   S
    C170   O290      1.28401      .   S
    C171   O291      1.28401      .   S
    C168   O288      1.28401      .   S
    C169   O289      1.28401      .   S
    C159   O267      1.28579      .   S
    C159   H63       1.10731      .   S
    C158   O266      1.28579      .   S
    C158   H62       1.10731      .   S
    C157   O265      1.28579      .   S
    C157   H61       1.10729      .   S
    C156   O264      1.28579      .   S
    C156   H60       1.10729      .   S
    Zn14   O298      2.12454      .   S
    Zn12   O296      2.12453      .   S
    Zn13   O297      2.12452      .   S
    Zn15   O299      2.12453      .   S
    C148   O248      1.28760      .   S
    C148   H52       1.10569      .   S
    C149   O249      1.28761      .   S
    C149   H53       1.10571      .   S
    C150   O250      1.28760      .   S
    C150   H54       1.10569      .   S
    C151   O251      1.28760      .   S
    C151   H55       1.10569      .   S
    O249   Zn5       2.12488      .   S
    O250   Zn6       2.12489      .   S
    O251   Zn7       2.12489      .   S
    O248   Zn4       2.12489      .   S
    H78    C175      1.10559  1_545   S
    H77    C172      1.10577      .   S
    H76    C173      1.10560  1_545   S
    H79    C174      1.10452      .   S
    O243   C147      1.28355      .   S
    O242   C146      1.28354      .   S
    O241   C145      1.28355      .   S
    O240   C144      1.28355      .   S
    O288   Zn8       2.15112      .   S
    O291   Zn11      2.15112      .   S
    O290   Zn10      2.15112      .   S
    O289   Zn9       2.15112      .   S
    H85    C181      1.10732      .   S
    H86    C182      1.10730      .   S
    H87    C183      1.10732      .   S
    H84    C180      1.10731      .   S
    O298   C174      1.28746      .   S
    O297   C173      1.28756      .   S
    O299   C175      1.28756      .   S
    O296   C172      1.28756      .   S
    C174   O303      1.25144      .   S
    C175   O302      1.25021  1_565   S
    C173   O300      1.25021  1_565   S
    C172   O301      1.25034      .   S
    O314   C182      1.28587      .   S
    O314   Zn10      2.14175      .   S
    O312   C180      1.28585      .   S
    O312   Zn8       2.14175      .   S
    O313   C181      1.28584      .   S
    O313   Zn9       2.14175      .   S
    O315   C183      1.28585      .   S
    O315   Zn11      2.14175      .   S
    Zn4    O246      2.05712  1_455   S
    Zn4    O304      2.16232      .   S
    Zn4    O332      2.06517      .   S
    Zn5    O247      2.05710  1_455   S
    Zn5    O305      2.16232      .   S
    Zn5    O333      2.06517      .   S
    Zn6    O244      2.05673      .   S
    Zn6    O306      2.16231      .   S
    Zn6    O334      2.06517      .   S
    Zn7    O245      2.05672      .   S
    Zn7    O307      2.16232      .   S
    Zn7    O335      2.06517      .   S
    C180   O316      1.25139      .   S
    C183   O319      1.25139      .   S
    C182   O318      1.25137      .   S
    C181   O317      1.25139      .   S
    C144   O244      1.25817      .   S
    C144   H48       1.10345      .   S
    C145   O245      1.25817      .   S
    C145   H49       1.10302      .   S
    C146   O246      1.25817      .   S
    C146   H50       1.10301      .   S
    C147   O247      1.25817      .   S
    C147   H51       1.10353      .   S
    O300   Zn36      2.11514      .   S
    O301   Zn37      2.11514      .   S
    O302   Zn38      2.11514      .   S
    O303   Zn39      2.11514      .   S
    Zn10   O330      2.09753      .   S
    Zn10   O322      2.06785      .   S
    Zn11   O331      2.09753      .   S
    Zn11   O323      2.06761      .   S
    Zn9    O329      2.09753      .   S
    Zn9    O321      2.06761      .   S
    Zn8    O328      2.09753      .   S
    Zn8    O320      2.06761      .   S
    O319   Zn47      2.09616      .   S
    O318   Zn46      2.09617      .   S
    O317   Zn45      2.09616      .   S
    O316   Zn44      2.09616      .   S
    O304   C176      1.28912      .   S
    O305   C177      1.28910      .   S
    O306   C178      1.28912      .   S
    O307   C179      1.28912      .   S
    O332   C188      1.25498      .   S
    O333   C189      1.25498      .   S
    O334   C190      1.25497      .   S
    O335   C191      1.25498      .   S
    H138   C234      1.10261      .   S
    H137   C233      1.10261      .   S
    H139   C235      1.10261      .   S
    H136   C232      1.10262      .   S
    O330   C190      1.28906      .   S
    O329   C189      1.28906      .   S
    O328   C188      1.28906      .   S
    O331   C191      1.28906      .   S
    C191   H95       1.10200      .   S
    C190   H94       1.10200      .   S
    C189   H93       1.10200      .   S
    C188   H92       1.10200      .   S
    C178   H82       1.10581      .   S
    C178   O310      1.25280      .   S
    C177   H81       1.10581      .   S
    C177   O309      1.25281      .   S
    C179   H83       1.10581      .   S
    C179   O311      1.25280      .   S
    C176   H80       1.10581      .   S
    C176   O308      1.25281      .   S
    O420   C232      1.24804      .   S
    O420   Zn44      2.11912      .   S
    O423   C235      1.24804      .   S
    O423   Zn47      2.11912      .   S
    O422   C234      1.24804      .   S
    O422   Zn46      2.11910      .   S
    O421   C233      1.24804      .   S
    O421   Zn45      2.11912      .   S
    C232   O416      1.29439      .   S
    C233   O417      1.29439      .   S
    C234   O418      1.29438      .   S
    C235   O419      1.29439      .   S
    O321   C185      1.29460      .   S
    O320   C184      1.29460      .   S
    O323   C187      1.29460      .   S
    O322   C186      1.29440      .   S
    O311   Zn38      2.10769  1_565   S
    O308   Zn37      2.10782      .   S
    O309   Zn36      2.10769  1_565   S
    O310   Zn39      2.10784      .   S
    Zn39   O407      2.10782      .   S
    Zn39   O398      2.11514      .   S
    Zn38   O406      2.10782      .   S
    Zn38   O399      2.11507  1_545   S
    Zn37   O405      2.10784      .   S
    Zn37   O396      2.11514      .   S
    Zn36   O404      2.10782      .   S
    Zn36   O397      2.11507  1_545   S
    Zn45   O325      2.11912      .   S
    Zn45   O413      2.09617      .   S
    Zn46   O326      2.11913      .   S
    Zn46   O414      2.09616      .   S
    Zn44   O324      2.11912      .   S
    Zn44   O412      2.09616      .   S
    Zn47   O327      2.11913      .   S
    Zn47   O415      2.09616      .   S
    O404   C224      1.25281      .   S
    O405   C225      1.25281      .   S
    O406   C226      1.25281      .   S
    O407   C227      1.25281      .   S
    H140   C236      1.10255      .   S
    H141   C237      1.10256      .   S
    H143   C239      1.10200      .   S
    H142   C238      1.10200      .   S
    O419   Zn27      2.06783      .   S
    O418   Zn26      2.06783      .   S
    O417   Zn25      2.06783      .   S
    O416   Zn24      2.06784      .   S
    C187   O327      1.24801      .   S
    C187   H91       1.10264      .   S
    C186   O326      1.24801      .   S
    C186   H90       1.10264      .   S
    C184   O324      1.24801      .   S
    C184   H88       1.10264      .   S
    C185   O325      1.24801      .   S
    C185   H89       1.10264      .   S
    H131   C227      1.10581      .   S
    H130   C226      1.10581      .   S
    H129   C225      1.10581      .   S
    H128   C224      1.10583      .   S
    C227   O403      1.28923      .   S
    C226   O402      1.28922      .   S
    C225   O401      1.28921      .   S
    C224   O400      1.28919      .   S
    C238   O426      1.28904      .   S
    C238   O430      1.25492      .   S
    C239   O427      1.28906      .   S
    C239   O431      1.25492      .   S
    C237   O425      1.28906      .   S
    C237   O429      1.25490      .   S
    C236   O424      1.28906      .   S
    C236   O428      1.25490      .   S
    O425   Zn25      2.09753      .   S
    O426   Zn26      2.09754      .   S
    O427   Zn27      2.09753      .   S
    O424   Zn24      2.09753      .   S
    O428   Zn20      2.06517      .   S
    O429   Zn21      2.06517      .   S
    O430   Zn22      2.06517      .   S
    O431   Zn23      2.06517      .   S
    O403   Zn23      2.16223      .   S
    O402   Zn22      2.16224      .   S
    O401   Zn21      2.16223      .   S
    O400   Zn20      2.16223      .   S
    O415   C231      1.25138      .   S
    O414   C230      1.25138      .   S
    O413   C229      1.25137      .   S
    O412   C228      1.25138      .   S
    H99    C195      1.10344      .   S
    H98    C194      1.10344      .   S
    H97    C193      1.10343      .   S
    H96    C192      1.10345      .   S
    Zn24   O408      2.14164      .   S
    Zn24   O384      2.15112      .   S
    Zn25   O409      2.14164      .   S
    Zn25   O385      2.15112      .   S
    Zn26   O410      2.14164      .   S
    Zn26   O386      2.15112      .   S
    Zn27   O411      2.14164      .   S
    Zn27   O387      2.15112      .   S
    O340   C192      1.25843      .   S
    O340   Zn22      2.05734  1_455   S
    O341   C193      1.25817      .   S
    O341   Zn23      2.05712  1_455   S
    O342   C194      1.25817      .   S
    O342   Zn20      2.05672      .   S
    O343   C195      1.25817      .   S
    O343   Zn21      2.05672      .   S
    O396   C221      1.25034      .   S
    O399   C222      1.25021  1_565   S
    O398   C223      1.25034      .   S
    O397   C220      1.25021  1_565   S
    C192   O336      1.28354      .   S
    C193   O337      1.28354      .   S
    C194   O338      1.28354      .   S
    C195   O339      1.28355      .   S
    C231   O411      1.28580      .   S
    C231   H135      1.10731      .   S
    C230   O410      1.28580      .   S
    C230   H134      1.10731      .   S
    C229   O409      1.28580      .   S
    C229   H133      1.10732      .   S
    C228   O408      1.28580      .   S
    C228   H132      1.10730      .   S
    Zn20   O344      2.12500      .   S
    Zn21   O345      2.12499      .   S
    Zn22   O346      2.12499      .   S
    Zn23   O347      2.12500      .   S
    C223   O395      1.28758      .   S
    C223   H126      1.10576      .   S
    C221   O393      1.28758      .   S
    C221   H124      1.10576      .   S
    C220   O392      1.28758      .   S
    C220   H125      1.10559  1_545   S
    C222   O394      1.28758      .   S
    C222   H127      1.10559  1_545   S
    O394   Zn30      2.12452      .   S
    O395   Zn31      2.12452      .   S
    O392   Zn28      2.12452      .   S
    O393   Zn29      2.12453      .   S
    H103   C199      1.10571      .   S
    H102   C198      1.10569      .   S
    H100   C196      1.10570      .   S
    H101   C197      1.10571      .   S
    O384   C216      1.28358      .   S
    O386   C218      1.28358      .   S
    O385   C217      1.28359      .   S
    O387   C219      1.28358      .   S
    O336   Zn16      2.15099      .   S
    O337   Zn17      2.15099      .   S
    O338   Zn18      2.15099      .   S
    O339   Zn19      2.15100      .   S
    H108   C204      1.10727      .   S
    H109   C205      1.10729      .   S
    H110   C206      1.10730      .   S
    H111   C207      1.10729      .   S
    O344   C196      1.28757      .   S
    O345   C197      1.28757      .   S
    O346   C198      1.28757      .   S
    O347   C199      1.28757      .   S
    C196   O348      1.25037      .   S
    C199   O351      1.25037      .   S
    C198   O350      1.25036      .   S
    C197   O349      1.25037      .   S
    O363   C207      1.28579      .   S
    O363   Zn17      2.14259  1_655   S
    O362   C206      1.28577      .   S
    O362   Zn16      2.14259  1_655   S
    O361   C205      1.28579      .   S
    O361   Zn19      2.14222      .   S
    O360   C204      1.28579      .   S
    O360   Zn18      2.14224      .   S
    Zn28   O388      2.05709      .   S
    Zn28   O352      2.16049      .   S
    Zn28   O380      2.06577      .   S
    Zn29   O389      2.05711      .   S
    Zn29   O353      2.16047      .   S
    Zn29   O381      2.06577      .   S
    Zn30   O390      2.05670      .   S
    Zn30   O354      2.16048      .   S
    Zn30   O382      2.06577      .   S
    Zn31   O391      2.05710      .   S
    Zn31   O355      2.16048      .   S
    Zn31   O383      2.06577      .   S
    C207   O366      1.25144      .   S
    C206   O367      1.25130  1_545   S
    C205   O364      1.25144      .   S
    C204   O365      1.25128  1_545   S
    C218   O390      1.25770      .   S
    C218   H122      1.10346      .   S
    C216   O388      1.25817      .   S
    C216   H120      1.10345      .   S
    C217   O389      1.25815      .   S
    C217   H121      1.10346      .   S
    C219   O391      1.25815      .   S
    C219   H123      1.10345      .   S
    Zn16   O376      2.09720      .   S
    Zn16   O370      2.06828  1_455   S
    Zn17   O377      2.09720      .   S
    Zn17   O371      2.06828  1_455   S
    Zn18   O378      2.09719      .   S
    Zn18   O368      2.06805      .   S
    Zn19   O379      2.09720      .   S
    Zn19   O369      2.06805      .   S
    O355   C203      1.28908      .   S
    O354   C202      1.28910      .   S
    O353   C201      1.28908      .   S
    O352   C200      1.28908      .   S
    O382   C214      1.25496      .   S
    O381   C213      1.25496      .   S
    O383   C215      1.25496      .   S
    O380   C212      1.25496      .   S
    H66    C162      1.10265      .   S
    H64    C160      1.10257      .   S
    H65    C161      1.10258      .   S
    H67    C163      1.10257      .   S
    O378   C214      1.28907      .   S
    O379   C215      1.28907      .   S
    O377   C213      1.28907      .   S
    O376   C212      1.28907      .   S
    C215   H118      1.10205      .   S
    C214   H119      1.10186  1_545   S
    C213   H116      1.10205      .   S
    C212   H117      1.10186  1_545   S
    C203   H107      1.10579      .   S
    C203   O359      1.25278      .   S
    C202   H106      1.10578      .   S
    C202   O358      1.25200      .   S
    C201   H105      1.10576      .   S
    C201   O357      1.25278      .   S
    C200   H104      1.10578      .   S
    C200   O356      1.25278      .   S
    O276   C160      1.24808      .   S
    O277   C161      1.24806      .   S
    O278   C162      1.24808      .   S
    O279   C163      1.24808      .   S
    O240   Zn12      2.16776      .   S
    O241   Zn13      2.16776      .   S
    O242   Zn14      2.16776      .   S
    O243   Zn15      2.16776      .   S
    O248   Zn2       2.12756  1_455   S
    O249   Zn3       2.12756  1_455   S
    O250   Zn0       2.12735      .   S
    O251   Zn1       2.12736      .   S
    O256   Zn0       2.16538      .   S
    O257   Zn1       2.16538      .   S
    O258   Zn2       2.16540      .   S
    O259   Zn3       2.16541      .   S
    O264   Zn4       2.19977      .   S
    O265   Zn5       2.19977      .   S
    O266   Zn6       2.19977      .   S
    O267   Zn7       2.19977      .   S
    O272   Zn32      2.17964      .   S
    O273   Zn33      2.17962      .   S
    O274   Zn34      2.17958      .   S
    O275   Zn35      2.17964      .   S
    O280   Zn43      2.17790      .   S
    O281   Zn42      2.17767  1_565   S
    O282   Zn41      2.17790      .   S
    O283   Zn40      2.17800  1_665   S
    O288   Zn4       2.16736      .   S
    O289   Zn5       2.16738      .   S
    O290   Zn6       2.16735      .   S
    O291   Zn7       2.16735      .   S
    O296   Zn8       2.12775      .   S
    O297   Zn9       2.12775      .   S
    O298   Zn10      2.12775      .   S
    O299   Zn11      2.12775      .   S
    O304   Zn8       2.16478      .   S
    O305   Zn9       2.16479      .   S
    O306   Zn10      2.16477      .   S
    O307   Zn11      2.16478      .   S
    O312   Zn12      2.20000      .   S
    O313   Zn13      2.20001      .   S
    O314   Zn14      2.20000      .   S
    O315   Zn15      2.20000      .   S
    O320   Zn37      2.17923      .   S
    O321   Zn36      2.17898  1_565   S
    O322   Zn39      2.17920      .   S
    O323   Zn38      2.17898  1_565   S
    O328   Zn44      2.17651      .   S
    O329   Zn45      2.17651      .   S
    O330   Zn46      2.17651      .   S
    O331   Zn47      2.17651      .   S
    O336   Zn28      2.16778      .   S
    O337   Zn29      2.16776      .   S
    O338   Zn30      2.16776      .   S
    O339   Zn31      2.16776      .   S
    O344   Zn18      2.12729      .   S
    O345   Zn19      2.12729      .   S
    O346   Zn16      2.12749  1_655   S
    O347   Zn17      2.12749  1_655   S
    O352   Zn16      2.16538      .   S
    O353   Zn17      2.16536      .   S
    O354   Zn18      2.16535      .   S
    O355   Zn19      2.16536      .   S
    O360   Zn20      2.19977      .   S
    O361   Zn21      2.19977      .   S
    O362   Zn22      2.19977      .   S
    O363   Zn23      2.19977      .   S
    O368   Zn34      2.17956  1_556   S
    O369   Zn35      2.17956  1_556   S
    O370   Zn32      2.17962  1_656   S
    O371   Zn33      2.17962  1_656   S
    O376   Zn40      2.17788  1_556   S
    O377   Zn41      2.17822  1_456   S
    O378   Zn42      2.17788  1_556   S
    O379   Zn43      2.17788  1_556   S
    O384   Zn20      2.16736      .   S
    O385   Zn21      2.16736      .   S
    O386   Zn22      2.16738      .   S
    O387   Zn23      2.16736      .   S
    O392   Zn24      2.12774      .   S
    O393   Zn25      2.12774      .   S
    O394   Zn26      2.12774      .   S
    O395   Zn27      2.12774      .   S
    O400   Zn24      2.16475      .   S
    O401   Zn25      2.16475      .   S
    O402   Zn26      2.16478      .   S
    O403   Zn27      2.16475      .   S
    O408   Zn28      2.20025      .   S
    O409   Zn29      2.20025      .   S
    O410   Zn30      2.20025      .   S
    O411   Zn31      2.20025      .   S
    O416   Zn36      2.17922      .   S
    O417   Zn37      2.17922      .   S
    O418   Zn38      2.17922      .   S
    O419   Zn39      2.17922      .   S
    O424   Zn44      2.17651      .   S
    O425   Zn45      2.17651      .   S
    O426   Zn46      2.17653      .   S
    O427   Zn47      2.17651      .   S
