# CIF file generated by openbabel 2.4.90, see http://openbabel.sf.net
data_I
_chemical_name_common 'VESTA_phase_1'
_cell_length_a 11.298
_cell_length_b 24.39
_cell_length_c 22.765
_cell_angle_alpha 99.196
_cell_angle_beta 89.99
_cell_angle_gamma 89.963
_space_group_name_H-M_alt 'P 1'
_space_group_name_Hall 'P 1'
loop_
    _symmetry_equiv_pos_as_xyz
    x,y,z
loop_
    _atom_site_label
    _atom_site_type_symbol
    _atom_site_fract_x
    _atom_site_fract_y
    _atom_site_fract_z
    _atom_site_occupancy
    Ca0     Ca   0.38286   0.31745   0.72328   1.000
    Ca1     Ca   0.38283   0.81746   0.72330   1.000
    Ca2     Ca   0.88285   0.31745   0.72328   1.000
    Ca3     Ca   0.88282   0.81746   0.72330   1.000
    Ca4     Ca   0.13291   0.43247   0.77676   1.000
    Ca5     Ca   0.13288   0.93246   0.77679   1.000
    Ca6     Ca   0.63290   0.43247   0.77676   1.000
    Ca7     Ca   0.63288   0.93247   0.77679   1.000
    Ca8     Ca   0.11714   0.18256   0.27669   1.000
    Ca9     Ca   0.11711   0.68257   0.27671   1.000
    Ca10    Ca   0.61713   0.18256   0.27669   1.000
    Ca11    Ca   0.61711   0.68257   0.27671   1.000
    Ca12    Ca   0.36710   0.06756   0.22319   1.000
    Ca13    Ca   0.36707   0.56755   0.22322   1.000
    Ca14    Ca   0.86710   0.06756   0.22319   1.000
    Ca15    Ca   0.86707   0.56755   0.22322   1.000
    H16     H    0.11772   0.10195   0.61978   1.000
    H17     H    0.11774   0.60200   0.61977   1.000
    H18     H    0.61771   0.10195   0.61978   1.000
    H19     H    0.61774   0.60200   0.61977   1.000
    H20     H    0.07036   0.11950   0.40120   1.000
    H21     H    0.07036   0.61954   0.40120   1.000
    H22     H    0.57034   0.11948   0.40120   1.000
    H23     H    0.57035   0.61953   0.40122   1.000
    H24     H    0.26986   0.21357   0.54315   1.000
    H25     H    0.26987   0.71362   0.54316   1.000
    H26     H    0.76984   0.21355   0.54315   1.000
    H27     H    0.76986   0.71362   0.54316   1.000
    H28     H    0.27680   0.17265   0.67399   1.000
    H29     H    0.27682   0.67268   0.67399   1.000
    H30     H    0.77680   0.17265   0.67399   1.000
    H31     H    0.77681   0.67268   0.67399   1.000
    H32     H    0.23380   0.09031   0.72366   1.000
    H33     H    0.23383   0.59033   0.72364   1.000
    H34     H    0.73380   0.09031   0.72366   1.000
    H35     H    0.73382   0.59033   0.72360   1.000
    H36     H    0.07630   0.02224   0.67276   1.000
    H37     H    0.07633   0.52227   0.67273   1.000
    H38     H    0.57630   0.02224   0.67276   1.000
    H39     H    0.57632   0.52227   0.67273   1.000
    H40     H    0.11681   0.14173   0.50949   1.000
    H41     H    0.11682   0.64178   0.50951   1.000
    H42     H    0.61679   0.14172   0.50950   1.000
    H43     H    0.61680   0.64177   0.50951   1.000
    H44     H    0.22449   0.19080   0.43430   1.000
    H45     H    0.22449   0.69085   0.43430   1.000
    H46     H    0.72447   0.19079   0.43430   1.000
    H47     H    0.72448   0.69085   0.43432   1.000
    H48     H    0.36788   0.14774   0.88002   1.000
    H49     H    0.36783   0.64776   0.88004   1.000
    H50     H    0.86787   0.14774   0.88000   1.000
    H51     H    0.86783   0.64776   0.88004   1.000
    H52     H    0.32036   0.13049   0.09853   1.000
    H53     H    0.32035   0.63047   0.09855   1.000
    H54     H    0.82036   0.13048   0.09853   1.000
    H55     H    0.82034   0.63047   0.09855   1.000
    H56     H    0.02003   0.03634   0.95672   1.000
    H57     H    0.01997   0.53637   0.95674   1.000
    H58     H    0.52001   0.03635   0.95672   1.000
    H59     H    0.51998   0.53636   0.95674   1.000
    H60     H    0.02706   0.07720   0.82580   1.000
    H61     H    0.02703   0.57721   0.82582   1.000
    H62     H    0.52706   0.07720   0.82580   1.000
    H63     H    0.52702   0.57721   0.82580   1.000
    H64     H    0.48398   0.15959   0.77621   1.000
    H65     H    0.48395   0.65960   0.77621   1.000
    H66     H    0.98397   0.15959   0.77621   1.000
    H67     H    0.98395   0.65960   0.77621   1.000
    H68     H    0.32635   0.22752   0.82713   1.000
    H69     H    0.32632   0.72754   0.82714   1.000
    H70     H    0.82634   0.22753   0.82713   1.000
    H71     H    0.82631   0.72754   0.82714   1.000
    H72     H    0.36684   0.10812   0.99023   1.000
    H73     H    0.36682   0.60811   0.99025   1.000
    H74     H    0.86684   0.10812   0.99023   1.000
    H75     H    0.86681   0.60812   0.99025   1.000
    H76     H    0.47462   0.05926   0.06558   1.000
    H77     H    0.47460   0.55925   0.06560   1.000
    H78     H    0.97462   0.05925   0.06558   1.000
    H79     H    0.97459   0.55926   0.06560   1.000
    H80     H    0.38224   0.39803   0.38021   1.000
    H81     H    0.38227   0.89808   0.38021   1.000
    H82     H    0.88223   0.39803   0.38021   1.000
    H83     H    0.88227   0.89809   0.38021   1.000
    H84     H    0.42963   0.38050   0.59877   1.000
    H85     H    0.42962   0.88054   0.59879   1.000
    H86     H    0.92961   0.38049   0.59878   1.000
    H87     H    0.92961   0.88054   0.59879   1.000
    H88     H    0.23011   0.28643   0.45682   1.000
    H89     H    0.23013   0.78649   0.45684   1.000
    H90     H    0.73009   0.28641   0.45682   1.000
    H91     H    0.73011   0.78648   0.45684   1.000
    H92     H    0.22316   0.32734   0.32599   1.000
    H93     H    0.22318   0.82738   0.32600   1.000
    H94     H    0.72316   0.32734   0.32600   1.000
    H95     H    0.72318   0.82738   0.32600   1.000
    H96     H    0.26615   0.40969   0.27634   1.000
    H97     H    0.26618   0.90972   0.27632   1.000
    H98     H    0.76615   0.40969   0.27634   1.000
    H99     H    0.76618   0.90972   0.27630   1.000
    H100    H    0.42366   0.47776   0.32724   1.000
    H101    H    0.42369   0.97780   0.32722   1.000
    H102    H    0.92365   0.47776   0.32725   1.000
    H103    H    0.92369   0.97780   0.32722   1.000
    H104    H    0.38317   0.35827   0.49048   1.000
    H105    H    0.38318   0.85832   0.49050   1.000
    H106    H    0.88315   0.35826   0.49048   1.000
    H107    H    0.88316   0.85831   0.49050   1.000
    H108    H    0.27549   0.30920   0.56567   1.000
    H109    H    0.27550   0.80925   0.56569   1.000
    H110    H    0.77548   0.30918   0.56567   1.000
    H111    H    0.77549   0.80924   0.56569   1.000
    H112    H    0.13214   0.35226   0.11994   1.000
    H113    H    0.13209   0.85228   0.11997   1.000
    H114    H    0.63213   0.35226   0.11994   1.000
    H115    H    0.63209   0.85228   0.11990   1.000
    H116    H    0.17962   0.36956   0.90143   1.000
    H117    H    0.17962   0.86954   0.90140   1.000
    H118    H    0.67963   0.36955   0.90143   1.000
    H119    H    0.67960   0.86955   0.90145   1.000
    H120    H    0.48000   0.46366   0.04324   1.000
    H121    H    0.47995   0.96368   0.04326   1.000
    H122    H    0.97999   0.46367   0.04324   1.000
    H123    H    0.97995   0.96368   0.04326   1.000
    H124    H    0.47295   0.42281   0.17416   1.000
    H125    H    0.47291   0.92282   0.17417   1.000
    H126    H    0.97294   0.42281   0.17416   1.000
    H127    H    0.97290   0.92282   0.17417   1.000
    H128    H    0.01602   0.34042   0.22377   1.000
    H129    H    0.01599   0.84043   0.22378   1.000
    H130    H    0.51601   0.34042   0.22377   1.000
    H131    H    0.51598   0.84043   0.22370   1.000
    H132    H    0.17365   0.27248   0.17280   1.000
    H133    H    0.17361   0.77250   0.17286   1.000
    H134    H    0.67364   0.27248   0.17285   1.000
    H135    H    0.67361   0.77250   0.17286   1.000
    H136    H    0.13315   0.39192   0.00973   1.000
    H137    H    0.13313   0.89190   0.00976   1.000
    H138    H    0.63316   0.39191   0.00973   1.000
    H139    H    0.63312   0.89191   0.00976   1.000
    H140    H    0.02538   0.44078   0.93438   1.000
    H141    H    0.02535   0.94077   0.93440   1.000
    H142    H    0.52538   0.44076   0.93438   1.000
    H143    H    0.52534   0.94078   0.93440   1.000
    C144    C    0.37680   0.00269   0.73343   1.000
    C145    C    0.37684   0.50270   0.73300   1.000
    C146    C    0.87680   0.00269   0.73343   1.000
    C147    C    0.87683   0.50270   0.73339   1.000
    C148    C    0.36403   0.14082   0.34616   1.000
    C149    C    0.36400   0.64085   0.34610   1.000
    C150    C    0.86402   0.14082   0.34616   1.000
    C151    C    0.86400   0.64085   0.34610   1.000
    C152    C    0.44648   0.17960   0.53215   1.000
    C153    C    0.44650   0.67966   0.53216   1.000
    C154    C    0.94648   0.17960   0.53215   1.000
    C155    C    0.94649   0.67966   0.53216   1.000
    C156    C    0.44886   0.14129   0.64335   1.000
    C157    C    0.44888   0.64133   0.64335   1.000
    C158    C    0.94885   0.14129   0.64335   1.000
    C159    C    0.94887   0.64133   0.64335   1.000
    C160    C    0.03321   0.09898   0.64198   1.000
    C161    C    0.03323   0.59902   0.64197   1.000
    C162    C    0.53320   0.09898   0.64198   1.000
    C163    C    0.53323   0.59902   0.64197   1.000
    C164    C    0.00464   0.13978   0.43243   1.000
    C165    C    0.00464   0.63983   0.43244   1.000
    C166    C    0.50463   0.13978   0.43243   1.000
    C167    C    0.50463   0.63983   0.43244   1.000
    C168    C    0.39406   0.15399   0.41127   1.000
    C169    C    0.39406   0.65403   0.41129   1.000
    C170    C    0.89406   0.15399   0.41127   1.000
    C171    C    0.89405   0.65403   0.41129   1.000
    C172    C    0.33510   0.19312   0.51192   1.000
    C173    C    0.33511   0.69317   0.51194   1.000
    C174    C    0.83509   0.19311   0.51192   1.000
    C175    C    0.83510   0.69317   0.51194   1.000
    C176    C    0.34052   0.13894   0.67255   1.000
    C177    C    0.34054   0.63897   0.67255   1.000
    C178    C    0.84051   0.13894   0.67255   1.000
    C179    C    0.84053   0.63897   0.67255   1.000
    C180    C    0.31721   0.09315   0.70046   1.000
    C181    C    0.31724   0.59318   0.70045   1.000
    C182    C    0.81721   0.09315   0.70046   1.000
    C183    C    0.81723   0.59318   0.70045   1.000
    C184    C    0.00960   0.05426   0.67120   1.000
    C185    C    0.00962   0.55430   0.67123   1.000
    C186    C    0.50959   0.05426   0.67125   1.000
    C187    C    0.50962   0.55430   0.67123   1.000
    C188    C    0.03079   0.15222   0.49295   1.000
    C189    C    0.03080   0.65227   0.49296   1.000
    C190    C    0.53078   0.15222   0.49295   1.000
    C191    C    0.53079   0.65227   0.49296   1.000
    C192    C    0.40120   0.05083   0.70049   1.000
    C193    C    0.40123   0.55085   0.70047   1.000
    C194    C    0.90120   0.05083   0.70049   1.000
    C195    C    0.90123   0.55085   0.70047   1.000
    C196    C    0.30978   0.18005   0.45140   1.000
    C197    C    0.30978   0.68011   0.45145   1.000
    C198    C    0.80976   0.18005   0.45144   1.000
    C199    C    0.80977   0.68010   0.45145   1.000
    C200    C    0.12687   0.24721   0.76655   1.000
    C201    C    0.12684   0.74722   0.76655   1.000
    C202    C    0.62686   0.24721   0.76655   1.000
    C203    C    0.62683   0.74722   0.76655   1.000
    C204    C    0.11394   0.10923   0.15359   1.000
    C205    C    0.11393   0.60922   0.15362   1.000
    C206    C    0.61394   0.10923   0.15359   1.000
    C207    C    0.61393   0.60922   0.15362   1.000
    C208    C    0.19659   0.07027   0.96766   1.000
    C209    C    0.19656   0.57028   0.96768   1.000
    C210    C    0.69659   0.07027   0.96766   1.000
    C211    C    0.69655   0.57028   0.96768   1.000
    C212    C    0.19909   0.10847   0.85644   1.000
    C213    C    0.19905   0.60849   0.85646   1.000
    C214    C    0.69908   0.10847   0.85644   1.000
    C215    C    0.69904   0.60849   0.85646   1.000
    C216    C    0.28338   0.15075   0.85783   1.000
    C217    C    0.28334   0.65077   0.85785   1.000
    C218    C    0.78337   0.15075   0.85783   1.000
    C219    C    0.78333   0.65077   0.85785   1.000
    C220    C    0.25469   0.11019   0.06733   1.000
    C221    C    0.25467   0.61018   0.06735   1.000
    C222    C    0.75468   0.11019   0.06733   1.000
    C223    C    0.75466   0.61018   0.06735   1.000
    C224    C    0.14413   0.09603   0.08851   1.000
    C225    C    0.14411   0.59603   0.08853   1.000
    C226    C    0.64413   0.09603   0.08851   1.000
    C227    C    0.64410   0.59603   0.08853   1.000
    C228    C    0.08521   0.05681   0.98792   1.000
    C229    C    0.08518   0.55683   0.98790   1.000
    C230    C    0.58520   0.05681   0.98792   1.000
    C231    C    0.58517   0.55682   0.98794   1.000
    C232    C    0.09075   0.11088   0.82727   1.000
    C233    C    0.09071   0.61090   0.82728   1.000
    C234    C    0.59074   0.11088   0.82727   1.000
    C235    C    0.59071   0.61090   0.82728   1.000
    C236    C    0.06739   0.15670   0.79940   1.000
    C237    C    0.06736   0.65671   0.79940   1.000
    C238    C    0.56738   0.15670   0.79940   1.000
    C239    C    0.56735   0.65671   0.79940   1.000
    C240    C    0.25971   0.19551   0.82861   1.000
    C241    C    0.25967   0.69552   0.82860   1.000
    C242    C    0.75970   0.19551   0.82861   1.000
    C243    C    0.75966   0.69552   0.82860   1.000
    C244    C    0.28086   0.09768   0.00681   1.000
    C245    C    0.28083   0.59767   0.00683   1.000
    C246    C    0.78085   0.09767   0.00681   1.000
    C247    C    0.78082   0.59767   0.00683   1.000
    C248    C    0.15133   0.19901   0.79940   1.000
    C249    C    0.15129   0.69902   0.79941   1.000
    C250    C    0.65132   0.19901   0.79940   1.000
    C251    C    0.65129   0.69902   0.79941   1.000
    C252    C    0.05989   0.06995   0.04800   1.000
    C253    C    0.05986   0.56996   0.04840   1.000
    C254    C    0.55988   0.06995   0.04839   1.000
    C255    C    0.55985   0.56995   0.04842   1.000
    C256    C    0.12315   0.49732   0.26658   1.000
    C257    C    0.12319   0.99733   0.26655   1.000
    C258    C    0.62315   0.49732   0.26658   1.000
    C259    C    0.62319   0.99733   0.26655   1.000
    C260    C    0.13597   0.35917   0.65380   1.000
    C261    C    0.13594   0.85920   0.65383   1.000
    C262    C    0.63597   0.35917   0.65380   1.000
    C263    C    0.63593   0.85920   0.65383   1.000
    C264    C    0.05348   0.32038   0.46780   1.000
    C265    C    0.05349   0.82044   0.46784   1.000
    C266    C    0.55347   0.32038   0.46783   1.000
    C267    C    0.55348   0.82044   0.46784   1.000
    C268    C    0.05110   0.35870   0.35663   1.000
    C269    C    0.05113   0.85875   0.35664   1.000
    C270    C    0.55110   0.35870   0.35663   1.000
    C271    C    0.55112   0.85875   0.35664   1.000
    C272    C    0.46675   0.40101   0.35801   1.000
    C273    C    0.46678   0.90106   0.35801   1.000
    C274    C    0.96674   0.40101   0.35801   1.000
    C275    C    0.96677   0.90106   0.35801   1.000
    C276    C    0.49534   0.36021   0.56755   1.000
    C277    C    0.49534   0.86026   0.56750   1.000
    C278    C    0.99532   0.36020   0.56755   1.000
    C279    C    0.99533   0.86025   0.56750   1.000
    C280    C    0.10591   0.34600   0.58870   1.000
    C281    C    0.10591   0.84605   0.58872   1.000
    C282    C    0.60591   0.34600   0.58870   1.000
    C283    C    0.60591   0.84605   0.58872   1.000
    C284    C    0.16487   0.30687   0.48805   1.000
    C285    C    0.16488   0.80693   0.48800   1.000
    C286    C    0.66486   0.30686   0.48805   1.000
    C287    C    0.66487   0.80693   0.48807   1.000
    C288    C    0.15944   0.36105   0.32744   1.000
    C289    C    0.15947   0.86109   0.32744   1.000
    C290    C    0.65944   0.36105   0.32744   1.000
    C291    C    0.65946   0.86109   0.32744   1.000
    C292    C    0.18274   0.40684   0.29953   1.000
    C293    C    0.18278   0.90687   0.29952   1.000
    C294    C    0.68274   0.40684   0.29953   1.000
    C295    C    0.68277   0.90687   0.29952   1.000
    C296    C    0.49036   0.44573   0.32875   1.000
    C297    C    0.49040   0.94577   0.32870   1.000
    C298    C    0.99035   0.44573   0.32875   1.000
    C299    C    0.99039   0.94577   0.32874   1.000
    C300    C    0.46918   0.34777   0.50703   1.000
    C301    C    0.46919   0.84782   0.50700   1.000
    C302    C    0.96917   0.34776   0.50703   1.000
    C303    C    0.96918   0.84782   0.50705   1.000
    C304    C    0.09875   0.44917   0.29951   1.000
    C305    C    0.09879   0.94920   0.29900   1.000
    C306    C    0.59875   0.44917   0.29951   1.000
    C307    C    0.59878   0.94920   0.29949   1.000
    C308    C    0.19020   0.31994   0.54853   1.000
    C309    C    0.19021   0.81999   0.54855   1.000
    C310    C    0.69019   0.31993   0.54853   1.000
    C311    C    0.69020   0.81998   0.54855   1.000
    C312    C    0.37312   0.25280   0.23344   1.000
    C313    C    0.37310   0.75280   0.23343   1.000
    C314    C    0.87312   0.25280   0.23344   1.000
    C315    C    0.87309   0.75280   0.23343   1.000
    C316    C    0.38603   0.39080   0.84636   1.000
    C317    C    0.38602   0.89080   0.84639   1.000
    C318    C    0.88602   0.39080   0.84636   1.000
    C319    C    0.88602   0.89080   0.84639   1.000
    C320    C    0.30343   0.42975   0.03230   1.000
    C321    C    0.30339   0.92976   0.03232   1.000
    C322    C    0.80342   0.42975   0.03230   1.000
    C323    C    0.80338   0.92976   0.03232   1.000
    C324    C    0.30093   0.39153   0.14350   1.000
    C325    C    0.30089   0.89155   0.14354   1.000
    C326    C    0.80092   0.39153   0.14353   1.000
    C327    C    0.80088   0.89155   0.14354   1.000
    C328    C    0.21663   0.34925   0.14214   1.000
    C329    C    0.21659   0.84927   0.14216   1.000
    C330    C    0.71662   0.34925   0.14214   1.000
    C331    C    0.71658   0.84927   0.14210   1.000
    C332    C    0.24530   0.38985   0.93263   1.000
    C333    C    0.24529   0.88984   0.93266   1.000
    C334    C    0.74531   0.38984   0.93263   1.000
    C335    C    0.74528   0.88984   0.93266   1.000
    C336    C    0.35586   0.40400   0.91145   1.000
    C337    C    0.35584   0.90400   0.91147   1.000
    C338    C    0.85586   0.40400   0.91145   1.000
    C339    C    0.85583   0.90400   0.91147   1.000
    C340    C    0.41480   0.44320   0.01204   1.000
    C341    C    0.41476   0.94322   0.01207   1.000
    C342    C    0.91479   0.44320   0.01204   1.000
    C343    C    0.91476   0.94321   0.01207   1.000
    C344    C    0.40926   0.38912   0.17270   1.000
    C345    C    0.40923   0.88914   0.17272   1.000
    C346    C    0.90926   0.38912   0.17270   1.000
    C347    C    0.90922   0.88914   0.17272   1.000
    C348    C    0.43261   0.34330   0.20058   1.000
    C349    C    0.43258   0.84332   0.20059   1.000
    C350    C    0.93261   0.34330   0.20058   1.000
    C351    C    0.93257   0.84332   0.20059   1.000
    C352    C    0.24030   0.30450   0.17136   1.000
    C353    C    0.24026   0.80452   0.17138   1.000
    C354    C    0.74029   0.30450   0.17136   1.000
    C355    C    0.74025   0.80452   0.17138   1.000
    C356    C    0.21915   0.40236   0.99315   1.000
    C357    C    0.21912   0.90235   0.99318   1.000
    C358    C    0.71914   0.40235   0.99315   1.000
    C359    C    0.71911   0.90235   0.99318   1.000
    C360    C    0.34867   0.30100   0.20058   1.000
    C361    C    0.34864   0.80101   0.20059   1.000
    C362    C    0.84867   0.30100   0.20058   1.000
    C363    C    0.84863   0.80101   0.20059   1.000
    C364    C    0.44012   0.43007   0.95156   1.000
    C365    C    0.44008   0.93008   0.95159   1.000
    C366    C    0.94011   0.43008   0.95156   1.000
    C367    C    0.94008   0.93008   0.95159   1.000
    S368    S    0.48452   0.19932   0.60850   1.000
    S369    S    0.48452   0.69937   0.60860   1.000
    S370    S    0.98451   0.19932   0.60850   1.000
    S371    S    0.98451   0.69937   0.60860   1.000
    S372    S    0.23460   0.05041   0.89124   1.000
    S373    S    0.23457   0.55043   0.89126   1.000
    S374    S    0.73460   0.05041   0.89124   1.000
    S375    S    0.73456   0.55043   0.89126   1.000
    S376    S    0.01545   0.30066   0.39139   1.000
    S377    S    0.01545   0.80072   0.39141   1.000
    S378    S    0.51544   0.30066   0.39139   1.000
    S379    S    0.51544   0.80072   0.39141   1.000
    S380    S    0.26541   0.44959   0.10873   1.000
    S381    S    0.26538   0.94961   0.10874   1.000
    S382    S    0.76540   0.44959   0.10873   1.000
    S383    S    0.76537   0.94961   0.10874   1.000
    O384    O    0.40496   0.24536   0.63240   1.000
    O385    O    0.40492   0.74540   0.63241   1.000
    O386    O    0.90495   0.24536   0.63240   1.000
    O387    O    0.90491   0.74540   0.63241   1.000
    O388    O    0.44950   0.13165   0.30873   1.000
    O389    O    0.44946   0.63167   0.30874   1.000
    O390    O    0.94950   0.13165   0.30873   1.000
    O391    O    0.94945   0.63167   0.30874   1.000
    O392    O    0.11243   0.20686   0.61192   1.000
    O393    O    0.11242   0.70694   0.61194   1.000
    O394    O    0.61242   0.20685   0.61192   1.000
    O395    O    0.61241   0.70694   0.61194   1.000
    O396    O    0.26884   0.49061   0.74028   1.000
    O397    O    0.26879   0.99061   0.74000   1.000
    O398    O    0.76884   0.49061   0.74028   1.000
    O399    O    0.76879   0.99061   0.74000   1.000
    O400    O    0.46594   0.47895   0.75191   1.000
    O401    O    0.46589   0.97895   0.75190   1.000
    O402    O    0.96593   0.47895   0.75191   1.000
    O403    O    0.96588   0.97895   0.75190   1.000
    O404    O    0.25592   0.13706   0.33122   1.000
    O405    O    0.25588   0.63710   0.33126   1.000
    O406    O    0.75592   0.13706   0.33122   1.000
    O407    O    0.75588   0.63710   0.33126   1.000
    O408    O    0.15477   0.00451   0.86753   1.000
    O409    O    0.15477   0.50452   0.86753   1.000
    O410    O    0.65477   0.00451   0.86753   1.000
    O411    O    0.65476   0.50452   0.86753   1.000
    O412    O    0.19932   0.11845   0.19106   1.000
    O413    O    0.19932   0.61845   0.19108   1.000
    O414    O    0.69932   0.11845   0.19106   1.000
    O415    O    0.69931   0.61845   0.19108   1.000
    O416    O    0.36244   0.04258   0.88785   1.000
    O417    O    0.36241   0.54261   0.88787   1.000
    O418    O    0.86243   0.04258   0.88785   1.000
    O419    O    0.86241   0.54261   0.88787   1.000
    O420    O    0.01884   0.25934   0.75972   1.000
    O421    O    0.01881   0.75935   0.75972   1.000
    O422    O    0.51884   0.25934   0.75972   1.000
    O423    O    0.51881   0.75935   0.75972   1.000
    O424    O    0.21590   0.27100   0.74807   1.000
    O425    O    0.21588   0.77101   0.74807   1.000
    O426    O    0.71589   0.27100   0.74807   1.000
    O427    O    0.71587   0.77101   0.74807   1.000
    O428    O    0.00577   0.11293   0.16844   1.000
    O429    O    0.00577   0.61292   0.16848   1.000
    O430    O    0.50577   0.11293   0.16844   1.000
    O431    O    0.50576   0.61292   0.16848   1.000
    O432    O    0.09503   0.25463   0.36758   1.000
    O433    O    0.09499   0.75466   0.36759   1.000
    O434    O    0.59502   0.25463   0.36758   1.000
    O435    O    0.59498   0.75467   0.36759   1.000
    O436    O    0.05051   0.36835   0.69124   1.000
    O437    O    0.05046   0.86836   0.69126   1.000
    O438    O    0.55051   0.36835   0.69124   1.000
    O439    O    0.55046   0.86836   0.69126   1.000
    O440    O    0.38754   0.29312   0.38805   1.000
    O441    O    0.38753   0.79320   0.38808   1.000
    O442    O    0.88753   0.29311   0.38805   1.000
    O443    O    0.88753   0.79320   0.38808   1.000
    O444    O    0.23121   0.00941   0.25969   1.000
    O445    O    0.23115   0.50941   0.25971   1.000
    O446    O    0.73120   0.00941   0.25969   1.000
    O447    O    0.73115   0.50941   0.25970   1.000
    O448    O    0.03411   0.02107   0.24801   1.000
    O449    O    0.03406   0.52107   0.24806   1.000
    O450    O    0.53411   0.02107   0.24801   1.000
    O451    O    0.53405   0.52107   0.24806   1.000
    O452    O    0.24409   0.36293   0.66872   1.000
    O453    O    0.24405   0.86296   0.66878   1.000
    O454    O    0.74408   0.36293   0.66872   1.000
    O455    O    0.74404   0.86296   0.66878   1.000
    O456    O    0.34522   0.49549   0.13246   1.000
    O457    O    0.34521   0.99551   0.13246   1.000
    O458    O    0.84521   0.49550   0.13246   1.000
    O459    O    0.84521   0.99551   0.13246   1.000
    O460    O    0.30064   0.38157   0.80890   1.000
    O461    O    0.30064   0.88157   0.80893   1.000
    O462    O    0.80063   0.38157   0.80890   1.000
    O463    O    0.80063   0.88157   0.80893   1.000
    O464    O    0.13757   0.45742   0.11212   1.000
    O465    O    0.13754   0.95745   0.11214   1.000
    O466    O    0.63756   0.45742   0.11212   1.000
    O467    O    0.63754   0.95745   0.11214   1.000
    O468    O    0.48114   0.24067   0.24027   1.000
    O469    O    0.48112   0.74067   0.24026   1.000
    O470    O    0.98114   0.24067   0.24027   1.000
    O471    O    0.98111   0.74067   0.24026   1.000
    O472    O    0.28408   0.22901   0.25191   1.000
    O473    O    0.28406   0.72902   0.25191   1.000
    O474    O    0.78408   0.22901   0.25191   1.000
    O475    O    0.78405   0.72902   0.25191   1.000
    O476    O    0.49419   0.38710   0.83140   1.000
    O477    O    0.49419   0.88710   0.83154   1.000
    O478    O    0.99418   0.38710   0.83149   1.000
    O479    O    0.99418   0.88710   0.83150   1.000
loop_
    _geom_bond_atom_site_label_1
    _geom_bond_atom_site_label_2
    _geom_bond_distance
    _geom_bond_site_symmetry_2
    _ccdc_geom_bond_type
    C244   C220      1.39430      .   S
    C244   C208      1.39938  1_554   S
    C244   H72       1.08723  1_554   S
    C246   C222      1.39430      .   S
    C246   C210      1.39936  1_554   S
    C246   H74       1.08724  1_554   S
    C247   C223      1.39428      .   S
    C247   C211      1.39933  1_554   S
    C247   H75       1.08723  1_554   S
    C245   C221      1.39428      .   S
    C245   C209      1.39933  1_554   S
    C245   H73       1.08723  1_554   S
    H138   C358      1.08724  1_554   S
    H136   C356      1.08725  1_554   S
    H139   C359      1.08724  1_554   S
    H137   C357      1.08723  1_554   S
    C342   C322      1.39731      .   S
    C342   H122      1.08790      .   S
    C342   C366      1.39241  1_554   S
    C340   C320      1.39731      .   S
    C340   H120      1.08788      .   S
    C340   C364      1.39241  1_554   S
    C341   C321      1.39726      .   S
    C341   H121      1.08775      .   S
    C341   C365      1.39244  1_554   S
    C343   C323      1.39726      .   S
    C343   H123      1.08774      .   S
    C343   C367      1.39244  1_554   S
    C322   S382      1.78223      .   S
    C322   C358      1.39933  1_554   S
    C320   S380      1.78223      .   S
    C320   C356      1.39932  1_554   S
    C323   S383      1.78203      .   S
    C323   C359      1.39923  1_554   S
    C321   S381      1.78203      .   S
    C321   C357      1.39924  1_554   S
    C252   H78       1.09082  1_455   S
    C252   C224      1.40522      .   S
    C252   C228      1.38378  1_554   S
    C254   H76       1.08712      .   S
    C254   C226      1.40005      .   S
    C254   C230      1.39223  1_554   S
    C253   H79       1.08737  1_455   S
    C253   C225      1.40015      .   S
    C253   C229      1.39286  1_554   S
    C255   H77       1.08705      .   S
    C255   C227      1.39990      .   S
    C255   C231      1.39242  1_554   S
    C222   C226      1.40193      .   S
    C222   H54       1.09010      .   S
    C220   C224      1.40193      .   S
    C220   H52       1.09010      .   S
    C223   C227      1.40190      .   S
    C223   H55       1.09011      .   S
    C221   C225      1.40192      .   S
    C221   H53       1.09010      .   S
    C226   C206      1.50406      .   S
    C224   C204      1.50406      .   S
    C227   C207      1.50424      .   S
    C225   C205      1.50424      .   S
    S380   O464      1.45720      .   S
    S380   O456      1.47193      .   S
    S380   C324      1.77496      .   S
    S382   O466      1.45720      .   S
    S382   O458      1.47195      .   S
    S382   C326      1.77533      .   S
    S381   O465      1.45720      .   S
    S381   O457      1.47194      .   S
    S381   C325      1.77533      .   S
    S383   O467      1.45720      .   S
    S383   O459      1.47194      .   S
    S383   C327      1.77533      .   S
    H115   C331      1.08816      .   S
    H114   C330      1.08812      .   S
    H112   C328      1.08811      .   S
    H113   C329      1.08807      .   S
    C331   C327      1.40064      .   S
    C331   C355      1.39270      .   S
    C330   C326      1.40076      .   S
    C330   C354      1.39182      .   S
    C328   C324      1.40081      .   S
    C328   C352      1.39182      .   S
    C329   C325      1.40078      .   S
    C329   C353      1.39185      .   S
    C324   C344      1.39859      .   S
    C326   C346      1.39828      .   S
    C327   C347      1.39842      .   S
    C325   C345      1.39843      .   S
    C206   O430      1.26728      .   S
    C206   O414      1.28370      .   S
    C204   O428      1.26728      .   S
    C204   O412      1.28370      .   S
    C207   O431      1.26725      .   S
    C207   O415      1.28363      .   S
    C205   O429      1.26727      .   S
    C205   O413      1.28362      .   S
    C354   H134      1.08957      .   S
    C354   C362      1.40259      .   S
    C352   H132      1.08942      .   S
    C352   C360      1.40257      .   S
    C355   H135      1.08956      .   S
    C355   C363      1.40252      .   S
    C353   H133      1.08957      .   S
    C353   C361      1.40253      .   S
    C344   H124      1.08900      .   S
    C344   C348      1.39551      .   S
    C346   H126      1.08899      .   S
    C346   C350      1.39552      .   S
    C345   H125      1.08900      .   S
    C345   C349      1.39542      .   S
    C347   H127      1.08900      .   S
    C347   C351      1.39542      .   S
    C362   C350      1.40187      .   S
    C362   C314      1.51614      .   S
    C350   H128      1.08795  1_655   S
    C348   C360      1.40187      .   S
    C348   H130      1.08783      .   S
    C360   C312      1.51616      .   S
    C363   C351      1.40187      .   S
    C363   C315      1.51610      .   S
    C351   H129      1.08804  1_655   S
    C361   C349      1.40187      .   S
    C361   C313      1.51610      .   S
    C349   H131      1.08702      .   S
    Ca14   O448      2.31683  1_655   S
    Ca14   O446      2.33193      .   S
    Ca12   O450      2.31671      .   S
    Ca12   O444      2.33193      .   S
    Ca15   O449      2.31664  1_655   S
    Ca15   O447      2.33187      .   S
    Ca13   O451      2.31654      .   S
    Ca13   O445      2.33198      .   S
    C313   O469      1.27100      .   S
    C313   O473      1.26655      .   S
    C315   O471      1.27101      .   S
    C315   O475      1.26655      .   S
    C314   O470      1.27101      .   S
    C314   O474      1.26652      .   S
    C312   O468      1.27100      .   S
    C312   O472      1.26652      .   S
    O471   Ca9       2.33043  1_655   S
    O469   Ca11      2.33034      .   S
    O470   Ca8       2.33024  1_655   S
    O468   Ca10      2.33016      .   S
    O450   C259      1.26640  1_545   S
    O448   C257      1.26641  1_545   S
    O451   C258      1.26655      .   S
    O449   C256      1.26656      .   S
    O472   Ca8       2.31643      .   S
    O475   Ca11      2.31653      .   S
    O474   Ca10      2.31645      .   S
    O473   Ca9       2.31654      .   S
    O444   C257      1.27103  1_545   S
    O446   C259      1.27104  1_545   S
    O447   C258      1.27102      .   S
    O445   C256      1.27100      .   S
    C259   C307      1.51600      .   S
    C257   C305      1.50911      .   S
    C256   C304      1.51614      .   S
    C258   C306      1.51614      .   S
    H99    C295      1.08805      .   S
    H97    C293      1.08781      .   S
    H98    C294      1.08776      .   S
    H96    C292      1.08777      .   S
    C305   C293      1.40322      .   S
    C305   C299      1.40823  1_455   S
    C307   C295      1.40183      .   S
    C307   C297      1.40224      .   S
    C304   C292      1.40182      .   S
    C304   C298      1.40272  1_455   S
    C306   C294      1.40183      .   S
    C306   C296      1.40260      .   S
    C293   C289      1.39554      .   S
    C295   C291      1.39556      .   S
    C292   C288      1.39552      .   S
    C294   C290      1.39554      .   S
    O388   C148      1.28342      .   S
    O390   C150      1.28342      .   S
    O391   C151      1.28227      .   S
    O389   C149      1.28228      .   S
    H92    C288      1.08896      .   S
    H95    C291      1.08895      .   S
    H94    C290      1.08897      .   S
    H93    C289      1.08896      .   S
    H101   C297      1.08945      .   S
    H103   C299      1.08958      .   S
    H100   C296      1.08958      .   S
    H102   C298      1.08954      .   S
    C291   C271      1.39832      .   S
    C290   C270      1.39824      .   S
    C289   C269      1.39830      .   S
    C288   C268      1.39824      .   S
    C297   C273      1.39236      .   S
    C299   C275      1.39181      .   S
    C298   C274      1.39181      .   S
    C296   C272      1.39179      .   S
    O406   C150      1.26738      .   S
    O404   C148      1.26737      .   S
    O405   C149      1.26693      .   S
    O407   C151      1.26693      .   S
    C151   C171      1.50628      .   S
    C149   C169      1.50628      .   S
    C150   C170      1.50447      .   S
    C148   C168      1.50447      .   S
    C268   C274      1.40089  1_455   S
    C268   S376      1.77511      .   S
    C270   C272      1.40080      .   S
    C270   S378      1.77511      .   S
    C269   C275      1.40091  1_455   S
    C269   S377      1.77507      .   S
    C271   C273      1.40081      .   S
    C271   S379      1.77507      .   S
    C275   H83       1.08802      .   S
    C274   H82       1.08806      .   S
    C273   H81       1.08803      .   S
    C272   H80       1.08807      .   S
    O434   S378      1.47204      .   S
    O432   S376      1.47204      .   S
    O435   S379      1.47212      .   S
    O433   S377      1.47214      .   S
    O440   S378      1.45727      .   S
    O442   S376      1.45741  1_655   S
    O441   S379      1.45728      .   S
    O443   S377      1.45743  1_655   S
    S378   C266      1.78243      .   S
    S376   C264      1.78179      .   S
    S379   C267      1.78225      .   S
    S377   C265      1.78225      .   S
    H20    C164      1.09018      .   S
    H22    C166      1.09019      .   S
    H21    C165      1.09032      .   S
    H23    C167      1.09005      .   S
    C170   C164      1.40218  1_655   S
    C170   C198      1.40010      .   S
    C168   C166      1.40204      .   S
    C168   C196      1.39958      .   S
    C171   C165      1.40210  1_655   S
    C171   C199      1.39999      .   S
    C169   C167      1.40198      .   S
    C169   C197      1.40000      .   S
    C164   C188      1.39432      .   S
    C166   C190      1.39432      .   S
    C167   C191      1.39435      .   S
    C165   C189      1.39435      .   S
    H44    C196      1.08682      .   S
    H45    C197      1.08725      .   S
    H46    C198      1.08719      .   S
    H47    C199      1.08708      .   S
    C196   C172      1.39336      .   S
    C198   C174      1.39249      .   S
    C197   C173      1.39273      .   S
    C199   C175      1.39273      .   S
    H88    C284      1.08786      .   S
    H90    C286      1.08788      .   S
    H91    C287      1.08788      .   S
    H89    C285      1.08695      .   S
    C264   C284      1.39755      .   S
    C264   C302      1.39970  1_455   S
    C266   C286      1.39728      .   S
    C266   C300      1.39924      .   S
    C267   C287      1.39735      .   S
    C267   C301      1.39872      .   S
    C265   C285      1.39677      .   S
    C265   C303      1.39944  1_455   S
    C285   C309      1.39401      .   S
    C284   C308      1.39252      .   S
    C286   C310      1.39252      .   S
    C287   C311      1.39249      .   S
    H104   C300      1.08746      .   S
    H106   C302      1.08746      .   S
    H107   C303      1.08747      .   S
    H105   C301      1.08701      .   S
    C190   H42       1.08745      .   S
    C190   C152      1.39924      .   S
    C188   H40       1.08736      .   S
    C188   C154      1.39933  1_455   S
    C191   H43       1.08743      .   S
    C191   C153      1.39925      .   S
    C189   H41       1.08745      .   S
    C189   C155      1.39933  1_455   S
    C301   C277      1.39388      .   S
    C302   C278      1.39434      .   S
    C300   C276      1.39434      .   S
    C303   C279      1.39280      .   S
    C172   C152      1.39734      .   S
    C172   H24       1.08789      .   S
    C174   C154      1.39734      .   S
    C174   H26       1.08789      .   S
    C175   C155      1.39728      .   S
    C175   H27       1.08776      .   S
    C173   C153      1.39728      .   S
    C173   H25       1.08776      .   S
    C152   S368      1.78054      .   S
    C154   S370      1.78054      .   S
    C153   S369      1.78240      .   S
    C155   S371      1.78240      .   S
    C310   H110      1.08717      .   S
    C310   C282      1.40012      .   S
    C308   H108      1.08718      .   S
    C308   C280      1.40009      .   S
    C311   H111      1.08719      .   S
    C311   C283      1.40008      .   S
    C309   H109      1.08719      .   S
    C309   C281      1.40008      .   S
    C279   C281      1.40271  1_655   S
    C279   H87       1.09096      .   S
    C277   C283      1.40257      .   S
    C277   H85       1.09096      .   S
    C276   C282      1.40199      .   S
    C276   H84       1.09002      .   S
    C278   C280      1.40213  1_655   S
    C278   H86       1.09014      .   S
    C282   C262      1.50433      .   S
    C280   C260      1.50433      .   S
    C283   C263      1.50444      .   S
    C281   C261      1.50444      .   S
    S370   O392      1.45749  1_655   S
    S370   O386      1.47255      .   S
    S370   C158      1.77617      .   S
    S368   O394      1.45734      .   S
    S368   O384      1.47254      .   S
    S368   C156      1.77618      .   S
    S369   O395      1.45727      .   S
    S369   O385      1.47201      .   S
    S369   C157      1.77505      .   S
    S371   O393      1.45741  1_655   S
    S371   O387      1.47202      .   S
    S371   C159      1.77505      .   S
    H17    C161      1.08807      .   S
    H19    C163      1.08808      .   S
    H16    C160      1.08805      .   S
    H18    C162      1.08806      .   S
    C163   C157      1.40079      .   S
    C163   C187      1.39187      .   S
    C161   C159      1.40089  1_455   S
    C161   C185      1.39186      .   S
    C160   C158      1.40090  1_455   S
    C160   C184      1.39118      .   S
    C162   C156      1.40081      .   S
    C162   C186      1.39186      .   S
    C159   C179      1.39835      .   S
    C158   C178      1.39832      .   S
    C157   C177      1.39836      .   S
    C156   C176      1.39832      .   S
    C262   O454      1.26738      .   S
    C262   O438      1.28342      .   S
    C260   O452      1.26738      .   S
    C260   O436      1.28342      .   S
    C263   O455      1.26743      .   S
    C263   O439      1.28343      .   S
    C261   O453      1.26743      .   S
    C261   O437      1.28343      .   S
    C184   H36       1.08971      .   S
    C184   C194      1.40326  1_455   S
    C187   H39       1.08957      .   S
    C187   C193      1.40261      .   S
    C185   H37       1.08955      .   S
    C185   C195      1.40274  1_455   S
    C186   H38       1.08956      .   S
    C186   C192      1.40259      .   S
    C176   H28       1.08897      .   S
    C176   C180      1.39546      .   S
    C177   H29       1.08898      .   S
    C177   C181      1.39545      .   S
    C179   H31       1.08900      .   S
    C179   C183      1.39545      .   S
    C178   H30       1.08897      .   S
    C178   C182      1.39546      .   S
    C181   C193      1.40184      .   S
    C181   H33       1.08777      .   S
    C183   C195      1.40184      .   S
    C183   H35       1.08731      .   S
    C180   C192      1.40185      .   S
    C180   H32       1.08784      .   S
    C182   C194      1.40186      .   S
    C182   H34       1.08783      .   S
    C193   C145      1.51058      .   S
    C195   C147      1.51605      .   S
    C192   C144      1.51610      .   S
    C194   C146      1.51610      .   S
    Ca0    O424      2.31658      .   S
    Ca0    O422      2.33028      .   S
    Ca2    O426      2.31658      .   S
    Ca2    O420      2.33037  1_655   S
    Ca1    O425      2.31648      .   S
    Ca1    O423      2.33018      .   S
    Ca3    O427      2.31648      .   S
    Ca3    O421      2.33029  1_655   S
    C145   O396      1.27249      .   S
    C145   O400      1.27028      .   S
    C147   O398      1.27104      .   S
    C147   O402      1.26665      .   S
    C144   O397      1.26997  1_545   S
    C144   O401      1.26583  1_545   S
    C146   O399      1.26997  1_545   S
    C146   O403      1.26583  1_545   S
    O397   Ca5       2.33501      .   S
    O399   Ca7       2.33501      .   S
    O398   Ca6       2.33196      .   S
    O396   Ca4       2.33196      .   S
    O427   C203      1.26658      .   S
    O426   C202      1.26654      .   S
    O425   C201      1.26658      .   S
    O424   C200      1.26654      .   S
    O403   Ca5       2.31717  1_655   S
    O401   Ca7       2.31705      .   S
    O402   Ca4       2.31655  1_655   S
    O400   Ca6       2.31642      .   S
    O420   C200      1.27101      .   S
    O421   C201      1.27101      .   S
    O422   C202      1.27101      .   S
    O423   C203      1.27102      .   S
    C201   C249      1.51613      .   S
    C200   C248      1.51616      .   S
    C202   C250      1.51614      .   S
    C203   C251      1.51612      .   S
    H67    C237      1.08796  1_655   S
    H66    C236      1.08804  1_655   S
    H65    C239      1.08784      .   S
    H64    C238      1.08790      .   S
    C248   C236      1.40188      .   S
    C248   C240      1.40252      .   S
    C250   C238      1.40189      .   S
    C250   C242      1.40252      .   S
    C239   C251      1.40185      .   S
    C239   C235      1.39554      .   S
    C238   C234      1.39543      .   S
    C237   C249      1.40187      .   S
    C237   C233      1.39551      .   S
    C236   C232      1.39543      .   S
    C251   C243      1.40225      .   S
    C249   C241      1.40225      .   S
    O462   C318      1.28370      .   S
    O460   C316      1.28370      .   S
    O461   C317      1.28361      .   S
    O463   C319      1.28362      .   S
    H60    C232      1.08897      .   S
    H62    C234      1.08897      .   S
    H63    C235      1.08895      .   S
    H61    C233      1.08898      .   S
    H70    C242      1.08957      .   S
    H68    C240      1.08955      .   S
    H71    C243      1.08948      .   S
    H69    C241      1.08948      .   S
    C232   C212      1.39831      .   S
    C234   C214      1.39831      .   S
    C233   C213      1.39839      .   S
    C235   C215      1.39839      .   S
    C241   C217      1.39224      .   S
    C243   C219      1.39225      .   S
    C240   C216      1.39188      .   S
    C242   C218      1.39188      .   S
    O476   C316      1.26777      .   S
    O478   C318      1.26725      .   S
    O479   C319      1.26745      .   S
    O477   C317      1.26723      .   S
    C318   C338      1.50422      .   S
    C316   C336      1.50422      .   S
    C319   C339      1.50405      .   S
    C317   C337      1.50405      .   S
    C214   C218      1.40076      .   S
    C214   S374      1.77531      .   S
    C212   C216      1.40076      .   S
    C212   S372      1.77531      .   S
    C215   C219      1.40077      .   S
    C215   S375      1.77533      .   S
    C213   C217      1.40076      .   S
    C213   S373      1.77533      .   S
    C216   H48       1.08805      .   S
    C218   H50       1.08783      .   S
    C217   H49       1.08801      .   S
    C219   H51       1.08800      .   S
    O408   S372      1.47190      .   S
    O409   S373      1.47196      .   S
    O410   S374      1.47190      .   S
    O411   S375      1.47196      .   S
    O416   S372      1.45719      .   S
    O418   S374      1.45719      .   S
    O417   S373      1.45720      .   S
    O419   S375      1.45721      .   S
    S374   C210      1.78204      .   S
    S372   C208      1.78204      .   S
    S375   C211      1.78203      .   S
    S373   C209      1.78203      .   S
    H117   C333      1.09089      .   S
    H116   C332      1.09011      .   S
    H118   C334      1.09012      .   S
    H119   C335      1.09023      .   S
    C336   C332      1.40190      .   S
    C336   C364      1.39990      .   S
    C338   C334      1.40189      .   S
    C338   C366      1.39991      .   S
    C337   C333      1.40201      .   S
    C337   C365      1.40006      .   S
    C339   C335      1.40202      .   S
    C339   C367      1.40004      .   S
    C332   C356      1.39427      .   S
    C334   C358      1.39427      .   S
    C333   C357      1.39429      .   S
    C335   C359      1.39429      .   S
    H140   C366      1.08718  1_455   S
    H142   C364      1.08707      .   S
    H141   C367      1.08726  1_455   S
    H143   C365      1.08713      .   S
    H56    C228      1.08788      .   S
    H58    C230      1.08788      .   S
    H57    C229      1.08735      .   S
    H59    C231      1.08789      .   S
    C208   C228      1.39734      .   S
    C210   C230      1.39736      .   S
    C211   C231      1.39733      .   S
    C209   C229      1.39700      .   S
    O384   Ca0       2.50407      .   S
    O385   Ca1       2.50391      .   S
    O386   Ca2       2.50407      .   S
    O387   Ca3       2.50391      .   S
    O388   Ca10      2.43972      .   S
    O388   Ca12      2.47632      .   S
    O389   Ca11      2.43980      .   S
    O389   Ca13      2.47622      .   S
    O390   Ca8       2.43983  1_655   S
    O390   Ca14      2.47633      .   S
    O391   Ca9       2.43989  1_655   S
    O391   Ca15      2.47623      .   S
    O404   Ca8       2.38110      .   S
    O405   Ca9       2.38102      .   S
    O406   Ca10      2.38110      .   S
    O407   Ca11      2.38102      .   S
    O408   Ca5       2.50133  1_545   S
    O409   Ca4       2.50184      .   S
    O410   Ca7       2.50132  1_545   S
    O411   Ca6       2.50184      .   S
    O412   Ca8       2.47600      .   S
    O412   Ca12      2.44058      .   S
    O413   Ca9       2.47629      .   S
    O413   Ca13      2.44049      .   S
    O414   Ca10      2.47599      .   S
    O414   Ca14      2.44057      .   S
    O415   Ca11      2.47628      .   S
    O415   Ca15      2.44050      .   S
    O428   Ca14      2.38225  1_455   S
    O429   Ca15      2.38233  1_455   S
    O430   Ca12      2.38215      .   S
    O431   Ca13      2.38222      .   S
    O432   Ca8       2.50402      .   S
    O433   Ca9       2.50418      .   S
    O434   Ca10      2.50404      .   S
    O435   Ca11      2.50419      .   S
    O436   Ca2       2.43993  1_455   S
    O436   Ca4       2.47634      .   S
    O437   Ca3       2.43976  1_455   S
    O437   Ca5       2.47633      .   S
    O438   Ca0       2.43984      .   S
    O438   Ca6       2.47632      .   S
    O439   Ca1       2.43967      .   S
    O439   Ca7       2.47633      .   S
    O452   Ca0       2.38121      .   S
    O453   Ca1       2.38101      .   S
    O454   Ca2       2.38119      .   S
    O455   Ca3       2.38101      .   S
    O456   Ca13      2.50174      .   S
    O457   Ca12      2.50121  1_565   S
    O458   Ca15      2.50172      .   S
    O459   Ca14      2.50121  1_565   S
    O460   Ca0       2.47616      .   S
    O460   Ca4       2.44028      .   S
    O461   Ca1       2.47598      .   S
    O461   Ca5       2.44050      .   S
    O462   Ca2       2.47614      .   S
    O462   Ca6       2.44030      .   S
    O463   Ca3       2.47599      .   S
    O463   Ca7       2.44051      .   S
    O476   Ca6       2.38104      .   S
    O477   Ca7       2.38228      .   S
    O478   Ca4       2.38234  1_655   S
    O479   Ca5       2.38183  1_655   S
