# CIF file generated by openbabel 2.4.90, see http://openbabel.sf.net
data_I
_chemical_name_common ''
_cell_length_a 15.554
_cell_length_b 14.514
_cell_length_c 15.025
_cell_angle_alpha 80.01
_cell_angle_beta 74.318
_cell_angle_gamma 77.467
_space_group_name_H-M_alt 'P 1'
_space_group_name_Hall 'P 1'
loop_
    _symmetry_equiv_pos_as_xyz
    x,y,z
loop_
    _atom_site_label
    _atom_site_type_symbol
    _atom_site_fract_x
    _atom_site_fract_y
    _atom_site_fract_z
    _atom_site_occupancy
    Cu0     Cu   0.49729   0.47992   0.92528   1.000
    Cu1     Cu   0.92754   0.48329   0.49451   1.000
    Cu2     Cu   0.50530   0.07820   0.51424   1.000
    Cu3     Cu   0.50144   0.51733   0.07713   1.000
    Cu4     Cu   0.07150   0.51413   0.50943   1.000
    C5      C    0.33093   0.05616   0.50882   1.000
    C6      C    0.93606   0.67629   0.49162   1.000
    Cu7     Cu   0.49420   0.91912   0.48652   1.000
    C8      C    0.51935   0.32199   0.06165   1.000
    C9      C    0.47029   0.93442   0.67108   1.000
    C10     C    0.05238   0.50661   0.32295   1.000
    C11     C    0.67071   0.49117   0.94529   1.000
    C12     C    0.66859   0.94102   0.49188   1.000
    C13     C    0.06330   0.32121   0.51190   1.000
    C14     C    0.47991   0.67483   0.93889   1.000
    C15     C    0.52917   0.06308   0.32976   1.000
    C16     C    0.94631   0.49114   0.68090   1.000
    C17     C    0.32805   0.50665   0.05840   1.000
    O18     O    0.37428   0.11716   0.51962   1.000
    O19     O    0.88432   0.62157   0.48505   1.000
    O20     O    0.01778   0.65055   0.49990   1.000
    O21     O    0.36358   0.96935   0.49600   1.000
    O22     O    0.51838   0.37935   0.11773   1.000
    O23     O    0.46832   0.87352   0.62012   1.000
    O24     O    0.47785   0.02160   0.64427   1.000
    O25     O    0.51490   0.34430   0.97670   1.000
    O26     O    0.10452   0.51951   0.37094   1.000
    O27     O    0.63009   0.47566   0.88736   1.000
    O28     O    0.63402   0.50790   0.02900   1.000
    O29     O    0.97104   0.49197   0.35550   1.000
    O30     O    0.62527   0.87982   0.48140   1.000
    O31     O    0.11497   0.37569   0.51911   1.000
    O32     O    0.98161   0.34716   0.50352   1.000
    O33     O    0.63594   0.02796   0.50412   1.000
    O34     O    0.48006   0.61751   0.88310   1.000
    O35     O    0.53039   0.12430   0.38074   1.000
    O36     O    0.52226   0.97574   0.35654   1.000
    O37     O    0.48493   0.65248   0.02365   1.000
    O38     O    0.89440   0.47732   0.63310   1.000
    O39     O    0.36865   0.52316   0.11589   1.000
    O40     O    0.36476   0.48878   0.97473   1.000
    O41     O    0.02745   0.50636   0.64825   1.000
    Og42    Og   0.29821   0.06736   0.50923   1.000
    Og43    Og   0.92288   0.71088   0.49132   1.000
    Og44    Og   0.52108   0.28775   0.07446   1.000
    Og45    Og   0.46934   0.92354   0.70439   1.000
    Og46    Og   0.06587   0.50685   0.28850   1.000
    Og47    Og   0.70397   0.49104   0.93401   1.000
    Og48    Og   0.70128   0.92990   0.49160   1.000
    Og49    Og   0.07648   0.28664   0.51187   1.000
    Og50    Og   0.47827   0.70908   0.92609   1.000
    Og51    Og   0.53015   0.07386   0.29643   1.000
    Og52    Og   0.93284   0.49097   0.71534   1.000
    Og53    Og   0.29479   0.50684   0.06970   1.000
loop_
    _geom_bond_atom_site_label_1
    _geom_bond_atom_site_label_2
    _geom_bond_distance
    _geom_bond_site_symmetry_2
    _ccdc_geom_bond_type
    O37    Cu3       1.97624      .   S
    O37    C14       1.27774  1_554   S
    O28    Cu3       1.97476      .   S
    O28    C11       1.27454  1_554   S
    C17    O39       1.27863      .   S
    C17    O40       1.27847  1_554   S
    C8     O22       1.27841      .   S
    C8     O25       1.27805  1_554   S
    Cu3    O39       1.97561      .   S
    Cu3    O22       1.97140      .   S
    C10    O29       1.27713  1_455   S
    C10    O26       1.28130      .   S
    C15    O36       1.28032  1_545   S
    C15    O35       1.27585      .   S
    O29    Cu1       2.00444      .   S
    O36    Cu7       1.95397      .   S
    O26    Cu4       1.99573      .   S
    O35    Cu2       1.96162      .   S
    O30    Cu7       1.97818      .   S
    O30    C12       1.27802      .   S
    O19    C6        1.27902      .   S
    O19    Cu1       1.96652      .   S
    Cu7    O21       1.97892      .   S
    Cu7    O23       1.96147      .   S
    C6     O20       1.27823  1_655   S
    C12    O33       1.27906  1_565   S
    Cu1    O32       1.96904      .   S
    Cu1    O38       1.99644      .   S
    O21    C5        1.27914  1_565   S
    O20    Cu4       1.97159      .   S
    O32    C13       1.27855  1_655   S
    O33    Cu2       1.97782      .   S
    C5     O18       1.27788      .   S
    Cu4    O31       1.96916      .   S
    Cu4    O41       2.00298      .   S
    C13    O31       1.27891      .   S
    Cu2    O18       1.97635      .   S
    Cu2    O24       1.95409      .   S
    O23    C9        1.27580      .   S
    O38    C16       1.28128      .   S
    O24    C9        1.28040  1_545   S
    O41    C16       1.27712  1_455   S
    O34    Cu0       1.97025      .   S
    O34    C14       1.27863      .   S
    O27    Cu0       1.97888      .   S
    O27    C11       1.27846      .   S
    Cu0    O40       1.97689      .   S
    Cu0    O25       1.97458      .   S
    Cu7    Cu2       2.46570  1_565   S
    Cu0    Cu3       2.45543  1_556   S
    Cu1    Cu4       2.45060  1_655   S
    C5     Og42      0.49806      .   S
    C6     Og43      0.49904      .   S
    C8     Og44      0.49857      .   S
    C9     Og45      0.49527      .   S
    C10    Og46      0.50293      .   S
    C11    Og47      0.49854      .   S
    C12    Og48      0.49808      .   S
    C13    Og49      0.49907      .   S
    C14    Og50      0.49873      .   S
    C15    Og51      0.49518      .   S
    C16    Og52      0.50287      .   S
    C17    Og53      0.49850      .   S
