# CIF file generated by openbabel 2.4.90, see http://openbabel.sf.net
data_I
_chemical_name_common ''
_cell_length_a 15.554
_cell_length_b 14.514
_cell_length_c 15.025
_cell_angle_alpha 80.01
_cell_angle_beta 74.318
_cell_angle_gamma 77.467
_space_group_name_H-M_alt 'P 1'
_space_group_name_Hall 'P 1'
loop_
    _symmetry_equiv_pos_as_xyz
    x,y,z
loop_
    _atom_site_label
    _atom_site_type_symbol
    _atom_site_fract_x
    _atom_site_fract_y
    _atom_site_fract_z
    _atom_site_occupancy
    N0      N    0.99966   0.99815   0.50077   1.000
    N1      N    0.49981   0.99779   0.00039   1.000
    N2      N    0.99937   0.49903   0.00117   1.000
    Zr3     Zr   0.99951   0.49877   0.50191   1.000
    O4      O    0.01775   0.50088   0.31906   1.000
    O5      O    0.98113   0.49686   0.68439   1.000
    O6      O    0.02044   0.31626   0.50411   1.000
    O7      O    0.97875   0.68097   0.49894   1.000
    Zr8     Zr   0.49974   0.99867   0.50036   1.000
    O9      O    0.67919   0.97996   0.49824   1.000
    O10     O    0.50748   0.01860   0.32022   1.000
    O11     O    0.32025   0.01712   0.50274   1.000
    O12     O    0.49204   0.97831   0.68054   1.000
    Zr13    Zr   0.49947   0.49865   0.00106   1.000
    O14     O    0.31912   0.50081   0.01966   1.000
    O15     O    0.67973   0.49682   0.98291   1.000
    O16     O    0.49405   0.68032   0.98055   1.000
    O17     O    0.50517   0.31643   0.02084   1.000
loop_
    _geom_bond_atom_site_label_1
    _geom_bond_atom_site_label_2
    _geom_bond_distance
    _geom_bond_site_symmetry_2
    _ccdc_geom_bond_type
    Zr3    O4        2.67988  1_655   S
    N2     O4        4.86644  1_655   S
    Zr3    O5        2.67453      .   S
    N2     O5        4.84993  1_554   S
    Zr3    O6        2.59324  1_655   S
    N0     O6        4.70753  1_665   S
    Zr3    O7        2.58752      .   S
    N0     O7        4.69032      .   S
    Zr8    O9        2.73705      .   S
    N0     O9        5.05906      .   S
    Zr8    O10       2.64412  1_565   S
    N1     O10       4.90168  1_565   S
    Zr8    O11       2.73720  1_565   S
    N0     O11       5.06154  1_665   S
    Zr8    O12       2.64444      .   S
    N1     O12       4.89798  1_554   S
    Zr13   O14       2.73661      .   S
    N2     O14       5.06131  1_655   S
    Zr13   O15       2.73735  1_554   S
    N2     O15       5.06006  1_554   S
    Zr13   O16       2.58665  1_554   S
    N1     O16       4.69025  1_554   S
    Zr13   O17       2.59431      .   S
    N1     O17       4.70778  1_565   S
