# CIF file generated by openbabel 2.4.90, see http://openbabel.sf.net
data_I
_chemical_name_common ''
_cell_length_a 14.637
_cell_length_b 15.146
_cell_length_c 16.082
_cell_angle_alpha 93.928
_cell_angle_beta 90.101
_cell_angle_gamma 89.975
_space_group_name_H-M_alt 'P 1'
_space_group_name_Hall 'P 1'
loop_
    _symmetry_equiv_pos_as_xyz
    x,y,z
loop_
    _atom_site_label
    _atom_site_type_symbol
    _atom_site_fract_x
    _atom_site_fract_y
    _atom_site_fract_z
    _atom_site_occupancy
    Zn0     Zn   0.15592   0.62159   0.30208   1.000
    Zn1     Zn   0.12897   0.64142   0.04496   1.000
    Zn2     Zn   0.65278   0.87366   0.69137   1.000
    Zn3     Zn   0.88269   0.84015   0.45931   1.000
    Zn4     Zn   0.64896   0.37453   0.19814   1.000
    Zn5     Zn   0.62488   0.35170   0.45187   1.000
    Zn6     Zn   0.14840   0.12566   0.80512   1.000
    Zn7     Zn   0.62159   0.84405   0.96141   1.000
    Zn8     Zn   0.84803   0.37478   0.70119   1.000
    Zn9     Zn   0.87476   0.35536   0.95743   1.000
    Zn10    Zn   0.34755   0.12291   0.30543   1.000
    Zn11    Zn   0.11797   0.15619   0.54101   1.000
    Zn12    Zn   0.35162   0.62216   0.79881   1.000
    Zn13    Zn   0.37550   0.64492   0.54490   1.000
    Zn14    Zn   0.85505   0.87034   0.19719   1.000
    Zn15    Zn   0.38223   0.15543   0.03555   1.000
