# CIF file generated by openbabel 2.4.90, see http://openbabel.sf.net
data_I
_chemical_name_common ''
_cell_length_a 14.637
_cell_length_b 15.146
_cell_length_c 16.082
_cell_angle_alpha 93.928
_cell_angle_beta 90.101
_cell_angle_gamma 89.975
_space_group_name_H-M_alt 'P 1'
_space_group_name_Hall 'P 1'
loop_
    _symmetry_equiv_pos_as_xyz
    x,y,z
loop_
    _atom_site_label
    _atom_site_type_symbol
    _atom_site_fract_x
    _atom_site_fract_y
    _atom_site_fract_z
    _atom_site_occupancy
    N0      N    0.50086   0.74879   0.23484   1.000
    N1      N    0.00440   0.74760   0.73594   1.000
    N2      N    0.09424   0.87835   0.55888   1.000
    N3      N    0.42424   0.36473   0.56860   1.000
    N4      N    0.57652   0.63153   0.42846   1.000
    N5      N    0.92593   0.63180   0.93110   1.000
    N6      N    0.50094   0.24960   0.76350   1.000
    N7      N    0.07857   0.36609   0.06996   1.000
    N8      N    0.99591   0.24889   0.26261   1.000
    N9      N    0.40776   0.87864   0.05688   1.000
    N10     N    0.59521   0.11933   0.93980   1.000
    N11     N    0.90684   0.11906   0.44178   1.000
    Zr12    Zr   0.64896   0.37453   0.19814   1.000
    O13     O    0.63349   0.30190   0.12091   1.000
    O14     O    0.75134   0.33788   0.21809   1.000
    Zr15    Zr   0.37550   0.64492   0.54490   1.000
    O16     O    0.38958   0.56787   0.56523   1.000
    O17     O    0.29074   0.71098   0.55146   1.000
    Zr18    Zr   0.38223   0.15543   0.03555   1.000
    O19     O    0.38861   0.07978   0.05550   1.000
    O20     O    0.29519   0.22014   0.04308   1.000
    Zr21    Zr   0.62488   0.35170   0.45187   1.000
    O22     O    0.61084   0.42860   0.43160   1.000
    O23     O    0.71003   0.28604   0.44663   1.000
    Zr24    Zr   0.34755   0.12291   0.30543   1.000
    O25     O    0.36758   0.04766   0.23660   1.000
    O26     O    0.37084   0.19201   0.38348   1.000
    O27     O    0.24362   0.15981   0.29281   1.000
    Zr28    Zr   0.14840   0.12566   0.80512   1.000
    O29     O    0.25260   0.16192   0.79286   1.000
    O30     O    0.12697   0.19434   0.88362   1.000
    O31     O    0.12997   0.04923   0.73729   1.000
    Zr32    Zr   0.85505   0.87034   0.19719   1.000
    O33     O    0.87248   0.94734   0.26446   1.000
    O34     O    0.75026   0.83490   0.20800   1.000
    O35     O    0.87678   0.80235   0.11824   1.000
    Zr36    Zr   0.15592   0.62159   0.30208   1.000
    O37     O    0.25760   0.65883   0.28130   1.000
    O38     O    0.13801   0.69473   0.37884   1.000
    O39     O    0.13075   0.54259   0.23945   1.000
    Zr40    Zr   0.35162   0.62216   0.79881   1.000
    O41     O    0.24916   0.65878   0.77943   1.000
    O42     O    0.36814   0.69514   0.87591   1.000
    Zr43    Zr   0.12897   0.64142   0.04496   1.000
    O44     O    0.11494   0.56595   0.06579   1.000
    O45     O    0.21327   0.70839   0.05057   1.000
    Zr46    Zr   0.65278   0.87366   0.69137   1.000
    O47     O    0.63343   0.94937   0.76006   1.000
    O48     O    0.62970   0.80443   0.61341   1.000
    O49     O    0.75669   0.83670   0.70459   1.000
    Zr50    Zr   0.88269   0.84015   0.45931   1.000
    O51     O    0.79500   0.77599   0.45275   1.000
    O52     O    0.88917   0.91652   0.44048   1.000
    Zr53    Zr   0.84803   0.37478   0.70119   1.000
    O54     O    0.86507   0.30192   0.62373   1.000
    O55     O    0.74564   0.33822   0.72041   1.000
    O56     O    0.87332   0.45424   0.76304   1.000
    Zr57    Zr   0.87476   0.35536   0.95743   1.000
    O58     O    0.79024   0.28892   0.95003   1.000
    O59     O    0.88905   0.43121   0.93620   1.000
    Zr60    Zr   0.11797   0.15619   0.54101   1.000
    O61     O    0.11186   0.08013   0.55992   1.000
    O62     O    0.20572   0.22026   0.54669   1.000
    Zr63    Zr   0.62159   0.84405   0.96141   1.000
    O64     O    0.61499   0.91921   0.94134   1.000
    O65     O    0.70887   0.77903   0.95511   1.000
    O66     O    0.07214   0.63213   0.00718   1.000
    O67     O    0.44161   0.13896   0.00267   1.000
    O68     O    0.56894   0.36198   0.49041   1.000
    O69     O    0.94149   0.85709   0.49336   1.000
    O70     O    0.93207   0.36498   0.99480   1.000
    O71     O    0.05927   0.13954   0.50707   1.000
    O72     O    0.56188   0.86010   0.99415   1.000
    O73     O    0.43149   0.63465   0.50635   1.000
    O74     O    0.62561   0.44846   0.26661   1.000
    O75     O    0.37496   0.54809   0.73034   1.000
loop_
    _geom_bond_atom_site_label_1
    _geom_bond_atom_site_label_2
    _geom_bond_distance
    _geom_bond_site_symmetry_2
    _ccdc_geom_bond_type
    Zr12   O13       1.61738      .   S
    N10    O13       3.91617  1_556   S
    Zr12   O14       1.63669      .   S
    N8     O14       3.90668      .   S
    Zr15   O16       1.25021      .   S
    N3     O16       3.12219      .   S
    Zr15   O17       1.59257      .   S
    N2     O17       3.82961      .   S
    Zr18   O19       1.21446      .   S
    N9     O19       3.06073  1_565   S
    Zr18   O20       1.60669      .   S
    N7     O20       3.87225      .   S
    Zr21   O22       1.24777      .   S
    N4     O22       3.11787      .   S
    Zr21   O23       1.59282      .   S
    N11    O23       3.82993      .   S
    Zr24   O25       1.56150      .   S
    N9     O25       3.77413  1_565   S
    Zr24   O26       1.61422      .   S
    N3     O26       3.90442      .   S
    Zr24   O27       1.63751      .   S
    N8     O27       3.90921  1_655   S
    Zr28   O29       1.63806      .   S
    N6     O29       3.91100      .   S
    Zr28   O30       1.61097      .   S
    N7     O30       3.89703  1_554   S
    Zr28   O31       1.55853      .   S
    N2     O31       3.76605  1_565   S
    Zr32   O33       1.55618      .   S
    N11    O33       3.75898  1_545   S
    Zr32   O34       1.63867      .   S
    N0     O34       3.91155      .   S
    Zr32   O35       1.61110      .   S
    N5     O35       3.89730  1_556   S
    Zr36   O37       1.63507      .   S
    N0     O37       3.90459      .   S
    Zr36   O38       1.62262      .   S
    N2     O38       3.92812      .   S
    Zr36   O39       1.55432      .   S
    N7     O39       3.76247      .   S
    Zr40   O41       1.63554      .   S
    N1     O41       3.90510      .   S
    Zr40   O42       1.62150      .   S
    N9     O42       3.92652  1_554   S
    Zr43   O44       1.23042      .   S
    N7     O44       3.07910      .   S
    Zr43   O45       1.59601      .   S
    N9     O45       3.83844      .   S
    Zr46   O47       1.56289      .   S
    N10    O47       3.77880  1_545   S
    Zr46   O48       1.61383      .   S
    N4     O48       3.90341      .   S
    Zr46   O49       1.63898      .   S
    N1     O49       3.91204  1_455   S
    Zr50   O51       1.60915      .   S
    N4     O51       3.87954      .   S
    Zr50   O52       1.21940      .   S
    N11    O52       3.07729  1_545   S
    Zr53   O54       1.62613      .   S
    N11    O54       3.93712      .   S
    Zr53   O55       1.63520      .   S
    N6     O55       3.90511      .   S
    Zr53   O56       1.55239      .   S
    N5     O56       3.75891      .   S
    Zr57   O58       1.59427      .   S
    N10    O58       3.83678      .   S
    Zr57   O59       1.23865      .   S
    N5     O59       3.09260      .   S
    Zr60   O61       1.21474      .   S
    N2     O61       3.06614  1_565   S
    Zr60   O62       1.60885      .   S
    N3     O62       3.87793      .   S
    Zr63   O64       1.20812      .   S
    N10    O64       3.04650  1_545   S
    Zr63   O65       1.61180      .   S
    N5     O65       3.88523      .   S
    Zr43   O66       1.03325      .   S
    N5     O66       2.46321  1_656   S
    Zr18   O67       1.03949      .   S
    N10    O67       2.47619  1_556   S
    Zr21   O68       1.03309      .   S
    N3     O68       2.46394      .   S
    Zr50   O69       1.04186      .   S
    N2     O69       2.48175  1_455   S
    Zr57   O70       1.03556      .   S
    N7     O70       2.45910  1_454   S
    Zr60   O71       1.03903      .   S
    N11    O71       2.47466  1_655   S
    Zr63   O72       1.04116      .   S
    N9     O72       2.48079  1_554   S
    N4     O73       2.46554      .   S
    Zr15   O73       1.03377      .   S
    N4     O74       3.74113      .   S
    Zr12   O74       1.55409      .   S
    N3     O75       3.74347      .   S
    Zr40   O75       1.55552      .   S
