# CIF file generated by openbabel 2.4.90, see http://openbabel.sf.net
data_I
_chemical_name_common ''
_cell_length_a 14.637
_cell_length_b 15.146
_cell_length_c 16.082
_cell_angle_alpha 93.928
_cell_angle_beta 90.101
_cell_angle_gamma 89.975
_space_group_name_H-M_alt 'P 1'
_space_group_name_Hall 'P 1'
loop_
    _symmetry_equiv_pos_as_xyz
    x,y,z
loop_
    _atom_site_label
    _atom_site_type_symbol
    _atom_site_fract_x
    _atom_site_fract_y
    _atom_site_fract_z
    _atom_site_occupancy
    N0      N    0.50086   0.74879   0.23484   1.000
    N1      N    0.00440   0.74760   0.73594   1.000
    N2      N    0.09424   0.87835   0.55888   1.000
    N3      N    0.42424   0.36473   0.56860   1.000
    N4      N    0.57652   0.63153   0.42846   1.000
    N5      N    0.92593   0.63180   0.93110   1.000
    N6      N    0.50094   0.24960   0.76350   1.000
    N7      N    0.07857   0.36609   0.06996   1.000
    N8      N    0.99591   0.24889   0.26261   1.000
    N9      N    0.40776   0.87864   0.05688   1.000
    N10     N    0.59521   0.11933   0.93980   1.000
    N11     N    0.90684   0.11906   0.44178   1.000
    Zr12    Zr   0.64896   0.37453   0.19814   1.000
    O13     O    0.62589   0.44287   0.27302   1.000
    O14     O    0.62533   0.45404   0.26020   1.000
    O15     O    0.63349   0.30190   0.12091   1.000
    O16     O    0.75134   0.33788   0.21809   1.000
    Zr17    Zr   0.37550   0.64492   0.54490   1.000
    O18     O    0.44070   0.64095   0.50759   1.000
    O19     O    0.42228   0.62835   0.50510   1.000
    O20     O    0.38958   0.56787   0.56523   1.000
    O21     O    0.29074   0.71098   0.55146   1.000
    Zr22    Zr   0.38223   0.15543   0.03555   1.000
    O23     O    0.43197   0.13349   0.00067   1.000
    O24     O    0.38861   0.07978   0.05550   1.000
    O25     O    0.29519   0.22014   0.04308   1.000
    O26     O    0.45124   0.14443   0.00467   1.000
    Zr27    Zr   0.62488   0.35170   0.45187   1.000
    O28     O    0.61084   0.42860   0.43160   1.000
    O29     O    0.71003   0.28604   0.44663   1.000
    O30     O    0.55981   0.35555   0.48928   1.000
    O31     O    0.57807   0.36841   0.49154   1.000
    Zr32    Zr   0.34755   0.12291   0.30543   1.000
    O33     O    0.36758   0.04766   0.23660   1.000
    O34     O    0.37084   0.19201   0.38348   1.000
    O35     O    0.24362   0.15981   0.29281   1.000
    Zr36    Zr   0.14840   0.12566   0.80512   1.000
    O37     O    0.25260   0.16192   0.79286   1.000
    O38     O    0.12697   0.19434   0.88362   1.000
    O39     O    0.12997   0.04923   0.73729   1.000
    Zr40    Zr   0.85505   0.87034   0.19719   1.000
    O41     O    0.87248   0.94734   0.26446   1.000
    O42     O    0.75026   0.83490   0.20800   1.000
    O43     O    0.87678   0.80235   0.11824   1.000
    Zr44    Zr   0.15592   0.62159   0.30208   1.000
    O45     O    0.25760   0.65883   0.28130   1.000
    O46     O    0.13801   0.69473   0.37884   1.000
    O47     O    0.13075   0.54259   0.23945   1.000
    Zr48    Zr   0.35162   0.62216   0.79881   1.000
    O49     O    0.24916   0.65878   0.77943   1.000
    O50     O    0.37466   0.55365   0.72392   1.000
    O51     O    0.37527   0.54253   0.73677   1.000
    O52     O    0.36814   0.69514   0.87591   1.000
    Zr53    Zr   0.12897   0.64142   0.04496   1.000
    O54     O    0.11494   0.56595   0.06579   1.000
    O55     O    0.06315   0.63871   0.00845   1.000
    O56     O    0.21327   0.70839   0.05057   1.000
    O57     O    0.08114   0.62554   0.00591   1.000
    Zr58    Zr   0.65278   0.87366   0.69137   1.000
    O59     O    0.63343   0.94937   0.76006   1.000
    O60     O    0.62970   0.80443   0.61341   1.000
    O61     O    0.75669   0.83670   0.70459   1.000
    Zr62    Zr   0.88269   0.84015   0.45931   1.000
    O63     O    0.79500   0.77599   0.45275   1.000
    O64     O    0.88917   0.91652   0.44048   1.000
    O65     O    0.93171   0.86234   0.49533   1.000
    O66     O    0.95126   0.85183   0.49138   1.000
    Zr67    Zr   0.84803   0.37478   0.70119   1.000
    O68     O    0.86507   0.30192   0.62373   1.000
    O69     O    0.74564   0.33822   0.72041   1.000
    O70     O    0.87332   0.45424   0.76304   1.000
    Zr71    Zr   0.87476   0.35536   0.95743   1.000
    O72     O    0.79024   0.28892   0.95003   1.000
    O73     O    0.94137   0.35844   0.99351   1.000
    O74     O    0.92277   0.37151   0.99610   1.000
    O75     O    0.88905   0.43121   0.93620   1.000
    Zr76    Zr   0.11797   0.15619   0.54101   1.000
    O77     O    0.11186   0.08013   0.55992   1.000
    O78     O    0.06902   0.13426   0.50505   1.000
    O79     O    0.20572   0.22026   0.54669   1.000
    O80     O    0.04952   0.14483   0.50908   1.000
    Zr81    Zr   0.62159   0.84405   0.96141   1.000
    O82     O    0.61499   0.91921   0.94134   1.000
    O83     O    0.55228   0.85454   0.99213   1.000
    O84     O    0.57149   0.86566   0.99617   1.000
    O85     O    0.70887   0.77903   0.95511   1.000
loop_
    _geom_bond_atom_site_label_1
    _geom_bond_atom_site_label_2
    _geom_bond_distance
    _geom_bond_site_symmetry_2
    _ccdc_geom_bond_type
    Zr12   O13       1.57035      .   S
    N4     O13       3.73660      .   S
    Zr12   O14       1.54995      .   S
    N4     O14       3.75071      .   S
    Zr12   O15       1.61738      .   S
    N10    O15       3.91617  1_556   S
    Zr12   O16       1.63669      .   S
    N8     O16       3.90668      .   S
    Zr17   O18       1.12758      .   S
    N4     O18       2.36133      .   S
    Zr17   O19       0.95957      .   S
    N4     O19       2.57618      .   S
    Zr17   O20       1.25021      .   S
    N3     O20       3.12219      .   S
    Zr17   O21       1.59257      .   S
    N2     O21       3.82961      .   S
    Zr22   O23       0.96488      .   S
    N10    O23       2.58685  1_556   S
    Zr22   O24       1.21446      .   S
    N9     O24       3.06073  1_565   S
    Zr22   O25       1.60669      .   S
    N7     O25       3.87225      .   S
    Zr22   O26       1.13355      .   S
    N10    O26       2.37195  1_556   S
    Zr27   O28       1.24777      .   S
    N4     O28       3.11787      .   S
    Zr27   O29       1.59282      .   S
    N11    O29       3.82993      .   S
    Zr27   O30       1.12676      .   S
    N3     O30       2.35982      .   S
    Zr27   O31       0.95906      .   S
    N3     O31       2.57451      .   S
    Zr32   O33       1.56150      .   S
    N9     O33       3.77413  1_565   S
    Zr32   O34       1.61422      .   S
    N3     O34       3.90442      .   S
    Zr32   O35       1.63751      .   S
    N8     O35       3.90921  1_655   S
    Zr36   O37       1.63806      .   S
    N6     O37       3.91100      .   S
    Zr36   O38       1.61097      .   S
    N7     O38       3.89703  1_554   S
    Zr36   O39       1.55853      .   S
    N2     O39       3.76605  1_565   S
    Zr40   O41       1.55618      .   S
    N11    O41       3.75898  1_545   S
    Zr40   O42       1.63867      .   S
    N0     O42       3.91155      .   S
    Zr40   O43       1.61110      .   S
    N5     O43       3.89730  1_556   S
    Zr44   O45       1.63507      .   S
    N0     O45       3.90459      .   S
    Zr44   O46       1.62262      .   S
    N2     O46       3.92812      .   S
    Zr44   O47       1.55432      .   S
    N7     O47       3.76247      .   S
    Zr48   O49       1.63554      .   S
    N1     O49       3.90510      .   S
    Zr48   O50       1.57196      .   S
    N3     O50       3.73876      .   S
    Zr48   O51       1.55119      .   S
    N3     O51       3.75324      .   S
    Zr48   O52       1.62150      .   S
    N9     O52       3.92652  1_554   S
    Zr53   O54       1.23042      .   S
    N7     O54       3.07910      .   S
    Zr53   O55       1.12675      .   S
    N5     O55       2.35926  1_656   S
    Zr53   O56       1.59601      .   S
    N9     O56       3.83844      .   S
    Zr53   O57       0.95943      .   S
    N5     O57       2.57363  1_656   S
    Zr58   O59       1.56289      .   S
    N10    O59       3.77880  1_545   S
    Zr58   O60       1.61383      .   S
    N4     O60       3.90341      .   S
    Zr58   O61       1.63898      .   S
    N1     O61       3.91204  1_455   S
    Zr62   O63       1.60915      .   S
    N4     O63       3.87954      .   S
    Zr62   O64       1.21940      .   S
    N11    O64       3.07729  1_545   S
    Zr62   O65       0.96715      .   S
    N2     O65       2.59246  1_455   S
    Zr62   O66       1.13602      .   S
    N2     O66       2.37745  1_455   S
    Zr67   O68       1.62613      .   S
    N11    O68       3.93712      .   S
    Zr67   O69       1.63520      .   S
    N6     O69       3.90511      .   S
    Zr67   O70       1.55239      .   S
    N5     O70       3.75891      .   S
    Zr71   O72       1.59427      .   S
    N10    O72       3.83678      .   S
    Zr71   O73       1.13295      .   S
    N7     O73       2.35157  1_454   S
    Zr71   O74       0.95821      .   S
    N7     O74       2.57322  1_454   S
    Zr71   O75       1.23865      .   S
    N5     O75       3.09260      .   S
    Zr76   O77       1.21474      .   S
    N2     O77       3.06614  1_565   S
    Zr76   O78       0.96469      .   S
    N11    O78       2.58517  1_655   S
    Zr76   O79       1.60885      .   S
    N3     O79       3.87793      .   S
    Zr76   O80       1.13292      .   S
    N11    O80       2.37059  1_655   S
    Zr81   O82       1.20812      .   S
    N10    O82       3.04650  1_545   S
    Zr81   O83       1.13553      .   S
    N9     O83       2.37639  1_554   S
    Zr81   O84       0.96628      .   S
    N9     O84       2.59163  1_554   S
    Zr81   O85       1.61180      .   S
    N5     O85       3.88523      .   S
