# CIF file generated by openbabel 2.4.90, see http://openbabel.sf.net
data_I
_chemical_name_common ''
_cell_length_a 13.128
_cell_length_b 13.969
_cell_length_c 16.99
_cell_angle_alpha 90
_cell_angle_beta 90.046
_cell_angle_gamma 90.119
_space_group_name_H-M_alt 'P 1'
_space_group_name_Hall 'P 1'
loop_
    _symmetry_equiv_pos_as_xyz
    x,y,z
loop_
    _atom_site_label
    _atom_site_type_symbol
    _atom_site_fract_x
    _atom_site_fract_y
    _atom_site_fract_z
    _atom_site_occupancy
    C0      C    0.42194   0.01326   0.22027   1.000
    C1      C    0.46664   0.91508   0.24406   1.000
    C2      C    0.57796   0.48674   0.72027   1.000
    C3      C    0.53331   0.58489   0.74404   1.000
    C4      C    0.92351   0.98493   0.28068   1.000
    C5      C    0.96703   0.08418   0.25835   1.000
    C6      C    0.07665   0.51509   0.78069   1.000
    C7      C    0.03303   0.41590   0.75829   1.000
    C8      C    0.57782   0.98675   0.77987   1.000
    C9      C    0.53319   0.08493   0.75605   1.000
    C10     C    0.42215   0.51322   0.27984   1.000
    C11     C    0.46679   0.41507   0.25605   1.000
    C12     C    0.07576   0.01570   0.72078   1.000
    C13     C    0.03172   0.91677   0.74412   1.000
    C14     C    0.92347   0.48366   0.22040   1.000
    C15     C    0.96551   0.58327   0.24388   1.000
loop_
    _geom_bond_atom_site_label_1
    _geom_bond_atom_site_label_2
    _geom_bond_distance
    _geom_bond_site_symmetry_2
    _ccdc_geom_bond_type
    C0     C1        1.54646  1_545   S
    C14    C15       1.54802      .   S
    C11    C10       1.54608      .   S
    C5     C4        1.54580  1_545   S
    C2     C3        1.54617      .   S
    C12    C13       1.54874  1_545   S
    C9     C8        1.54639  1_545   S
    C7     C6        1.54558      .   S
