# CIF file generated by openbabel 2.4.90, see http://openbabel.sf.net
data_I
_chemical_name_common ''
_cell_length_a 13.128
_cell_length_b 13.969
_cell_length_c 16.99
_cell_angle_alpha 90
_cell_angle_beta 90.046
_cell_angle_gamma 90.119
_space_group_name_H-M_alt 'P 1'
_space_group_name_Hall 'P 1'
loop_
    _symmetry_equiv_pos_as_xyz
    x,y,z
loop_
    _atom_site_label
    _atom_site_type_symbol
    _atom_site_fract_x
    _atom_site_fract_y
    _atom_site_fract_z
    _atom_site_occupancy
    Zr0     Zr   0.42651   0.97964   0.40638   1.000
    Zr1     Zr   0.47618   0.90836   0.07314   1.000
    Zr2     Zr   0.57337   0.52032   0.90639   1.000
    Zr3     Zr   0.52378   0.59164   0.57314   1.000
    Zr4     Zr   0.92757   0.01861   0.09660   1.000
    Zr5     Zr   0.97780   0.09226   0.42943   1.000
    Zr6     Zr   0.07250   0.48178   0.59663   1.000
    Zr7     Zr   0.02210   0.40781   0.92939   1.000
    Zr8     Zr   0.57316   0.02040   0.59365   1.000
    Zr9     Zr   0.52404   0.09152   0.92690   1.000
    Zr10    Zr   0.42680   0.47966   0.09366   1.000
    Zr11    Zr   0.47583   0.40846   0.42701   1.000
    Zr12    Zr   0.07213   0.98035   0.90660   1.000
    Zr13    Zr   0.02226   0.90849   0.57320   1.000
    Zr14    Zr   0.92734   0.51974   0.40685   1.000
    Zr15    Zr   0.97752   0.59162   0.07325   1.000
    Zr16    Zr   0.25995   0.85974   0.50787   1.000
    Zr17    Zr   0.44103   0.19890   0.34828   1.000
    Zr18    Zr   0.15212   0.15037   0.33550   1.000
    Zr19    Zr   0.27477   0.11070   0.31803   1.000
    Zr20    Zr   0.55971   0.22987   0.63860   1.000
    Zr21    Zr   0.56497   0.33883   0.59106   1.000
    Zr22    Zr   0.73995   0.64027   0.00776   1.000
    Zr23    Zr   0.55869   0.30116   0.84831   1.000
    Zr24    Zr   0.84776   0.34976   0.83543   1.000
    Zr25    Zr   0.72500   0.38926   0.81793   1.000
    Zr26    Zr   0.44024   0.27015   0.13862   1.000
    Zr27    Zr   0.43494   0.16120   0.09000   1.000
    Zr28    Zr   0.76134   0.13911   0.99414   1.000
    Zr29    Zr   0.94455   0.79992   0.15265   1.000
    Zr30    Zr   0.65163   0.84882   0.16633   1.000
    Zr31    Zr   0.77506   0.88733   0.18277   1.000
    Zr32    Zr   0.05998   0.77178   0.86147   1.000
    Zr33    Zr   0.06615   0.66240   0.90815   1.000
    Zr34    Zr   0.23844   0.36103   0.49402   1.000
    Zr35    Zr   0.05500   0.70020   0.65287   1.000
    Zr36    Zr   0.34851   0.65130   0.66618   1.000
    Zr37    Zr   0.22515   0.61274   0.68263   1.000
    Zr38    Zr   0.94026   0.72831   0.36122   1.000
    Zr39    Zr   0.93479   0.83801   0.40783   1.000
    Zr40    Zr   0.73992   0.14035   0.49302   1.000
    Zr41    Zr   0.55814   0.80130   0.65196   1.000
    Zr42    Zr   0.84701   0.84982   0.66558   1.000
    Zr43    Zr   0.72409   0.88899   0.68233   1.000
    Zr44    Zr   0.44033   0.77010   0.36137   1.000
    Zr45    Zr   0.43497   0.66118   0.40906   1.000
    Zr46    Zr   0.25994   0.36004   0.99309   1.000
    Zr47    Zr   0.44195   0.69870   0.15192   1.000
    Zr48    Zr   0.15267   0.65040   0.16576   1.000
    Zr49    Zr   0.27562   0.61118   0.18279   1.000
    Zr50    Zr   0.55965   0.72986   0.86142   1.000
    Zr51    Zr   0.56504   0.83879   0.90910   1.000
    Zr52    Zr   0.23937   0.86054   0.00686   1.000
    Zr53    Zr   0.05508   0.19919   0.84997   1.000
    Zr54    Zr   0.34763   0.15105   0.83436   1.000
    Zr55    Zr   0.22401   0.11266   0.81842   1.000
    Zr56    Zr   0.93986   0.22804   0.14117   1.000
    Zr57    Zr   0.93350   0.33718   0.09406   1.000
    Zr58    Zr   0.76041   0.63960   0.50696   1.000
    Zr59    Zr   0.94468   0.30092   0.34997   1.000
    Zr60    Zr   0.65224   0.34902   0.33439   1.000
    Zr61    Zr   0.77587   0.38742   0.31864   1.000
    Zr62    Zr   0.05999   0.27204   0.64126   1.000
    Zr63    Zr   0.06629   0.16297   0.59403   1.000
    Zr64    Zr   0.42194   0.01326   0.22027   1.000
    Zr65    Zr   0.46664   0.91508   0.24406   1.000
    Zr66    Zr   0.20132   0.04627   0.40829   1.000
    Zr67    Zr   0.22482   0.92138   0.48019   1.000
    Zr68    Zr   0.52897   0.22036   0.52303   1.000
    Zr69    Zr   0.46951   0.19055   0.40763   1.000
    Zr70    Zr   0.57796   0.48674   0.72027   1.000
    Zr71    Zr   0.53331   0.58489   0.74404   1.000
    Zr72    Zr   0.79859   0.45383   0.90814   1.000
    Zr73    Zr   0.77510   0.57868   0.98003   1.000
    Zr74    Zr   0.47085   0.27969   0.02300   1.000
    Zr75    Zr   0.53023   0.30951   0.90764   1.000
    Zr76    Zr   0.92351   0.98493   0.28068   1.000
    Zr77    Zr   0.96703   0.08418   0.25835   1.000
    Zr78    Zr   0.70120   0.95260   0.09329   1.000
    Zr79    Zr   0.72565   0.07760   0.02176   1.000
    Zr80    Zr   0.03048   0.78009   0.97726   1.000
    Zr81    Zr   0.97236   0.80882   0.09317   1.000
    Zr82    Zr   0.07665   0.51509   0.78069   1.000
    Zr83    Zr   0.03303   0.41590   0.75829   1.000
    Zr84    Zr   0.29881   0.54752   0.59313   1.000
    Zr85    Zr   0.27419   0.42254   0.52162   1.000
    Zr86    Zr   0.97017   0.72018   0.47706   1.000
    Zr87    Zr   0.02756   0.69136   0.59325   1.000
    Zr88    Zr   0.57782   0.98675   0.77987   1.000
    Zr89    Zr   0.53319   0.08493   0.75605   1.000
    Zr90    Zr   0.79814   0.95363   0.59256   1.000
    Zr91    Zr   0.77494   0.07870   0.52078   1.000
    Zr92    Zr   0.47075   0.77973   0.47706   1.000
    Zr93    Zr   0.52982   0.80963   0.59256   1.000
    Zr94    Zr   0.42215   0.51322   0.27984   1.000
    Zr95    Zr   0.46679   0.41507   0.25605   1.000
    Zr96    Zr   0.20162   0.54646   0.09287   1.000
    Zr97    Zr   0.22487   0.42160   0.02094   1.000
    Zr98    Zr   0.52924   0.72025   0.97700   1.000
    Zr99    Zr   0.47023   0.69037   0.09254   1.000
    Zr100   Zr   0.07576   0.01570   0.72078   1.000
    Zr101   Zr   0.03172   0.91677   0.74412   1.000
    Zr102   Zr   0.29858   0.04719   0.90751   1.000
    Zr103   Zr   0.27478   0.92209   0.97908   1.000
    Zr104   Zr   0.96937   0.21919   0.02542   1.000
    Zr105   Zr   0.02746   0.19037   0.90950   1.000
    Zr106   Zr   0.92347   0.48366   0.22040   1.000
    Zr107   Zr   0.96551   0.58327   0.24388   1.000
    Zr108   Zr   0.70121   0.45287   0.40765   1.000
    Zr109   Zr   0.72501   0.57800   0.47920   1.000
    Zr110   Zr   0.03048   0.28100   0.52540   1.000
    Zr111   Zr   0.97231   0.30976   0.40953   1.000
    Zr112   Zr   0.27337   0.97961   0.42798   1.000
    Zr113   Zr   0.12957   0.94838   0.49296   1.000
    Zr114   Zr   0.11377   0.02959   0.44720   1.000
    Zr115   Zr   0.21710   0.12099   0.35826   1.000
    Zr116   Zr   0.52322   0.12393   0.51624   1.000
    Zr117   Zr   0.48428   0.10596   0.44120   1.000
    Zr118   Zr   0.49560   0.26418   0.45574   1.000
    Zr119   Zr   0.56899   0.26583   0.58662   1.000
    Zr120   Zr   0.72649   0.52037   0.92787   1.000
    Zr121   Zr   0.87043   0.55182   0.99274   1.000
    Zr122   Zr   0.88622   0.47066   0.94699   1.000
    Zr123   Zr   0.78279   0.37907   0.85814   1.000
    Zr124   Zr   0.47652   0.37612   0.01621   1.000
    Zr125   Zr   0.51545   0.39410   0.94119   1.000
    Zr126   Zr   0.50418   0.23587   0.95571   1.000
    Zr127   Zr   0.43091   0.23421   0.08656   1.000
    Zr128   Zr   0.77393   0.01888   0.07367   1.000
    Zr129   Zr   0.62995   0.05135   0.00910   1.000
    Zr130   Zr   0.61349   0.96995   0.05471   1.000
    Zr131   Zr   0.71671   0.87746   0.14298   1.000
    Zr132   Zr   0.02394   0.87641   0.98434   1.000
    Zr133   Zr   0.98594   0.89366   0.05972   1.000
    Zr134   Zr   0.99844   0.73566   0.04471   1.000
    Zr135   Zr   0.06998   0.73543   0.91324   1.000
    Zr136   Zr   0.22603   0.48129   0.57351   1.000
    Zr137   Zr   0.36989   0.44876   0.50900   1.000
    Zr138   Zr   0.38644   0.53013   0.55458   1.000
    Zr139   Zr   0.28337   0.62268   0.64281   1.000
    Zr140   Zr   0.97645   0.62382   0.48419   1.000
    Zr141   Zr   0.01397   0.60655   0.55976   1.000
    Zr142   Zr   0.00195   0.76455   0.54466   1.000
    Zr143   Zr   0.93122   0.76497   0.41294   1.000
    Zr144   Zr   0.72612   0.02024   0.57261   1.000
    Zr145   Zr   0.87034   0.05187   0.50849   1.000
    Zr146   Zr   0.88597   0.97058   0.55414   1.000
    Zr147   Zr   0.78208   0.87874   0.64236   1.000
    Zr148   Zr   0.47649   0.87616   0.48380   1.000
    Zr149   Zr   0.51517   0.89419   0.55891   1.000
    Zr150   Zr   0.50389   0.73597   0.54444   1.000
    Zr151   Zr   0.43096   0.73419   0.41342   1.000
    Zr152   Zr   0.27371   0.48002   0.07280   1.000
    Zr153   Zr   0.12941   0.44830   0.00868   1.000
    Zr154   Zr   0.11374   0.52945   0.05444   1.000
    Zr155   Zr   0.21756   0.62129   0.14278   1.000
    Zr156   Zr   0.52349   0.62382   0.98381   1.000
    Zr157   Zr   0.48485   0.60580   0.05891   1.000
    Zr158   Zr   0.49615   0.76403   0.04445   1.000
    Zr159   Zr   0.56900   0.76578   0.91340   1.000
    Zr160   Zr   0.22603   0.98084   0.92748   1.000
    Zr161   Zr   0.37054   0.94838   0.99121   1.000
    Zr162   Zr   0.38663   0.02982   0.94564   1.000
    Zr163   Zr   0.28272   0.12234   0.85793   1.000
    Zr164   Zr   0.97620   0.12286   0.01854   1.000
    Zr165   Zr   0.01415   0.10556   0.94311   1.000
    Zr166   Zr   0.00123   0.26358   0.95787   1.000
    Zr167   Zr   0.92975   0.26409   0.08920   1.000
    Zr168   Zr   0.77372   0.51924   0.42767   1.000
    Zr169   Zr   0.62928   0.55166   0.49128   1.000
    Zr170   Zr   0.61320   0.47021   0.44572   1.000
    Zr171   Zr   0.71712   0.37777   0.35806   1.000
    Zr172   Zr   0.02365   0.37733   0.51859   1.000
    Zr173   Zr   0.98563   0.39459   0.44310   1.000
    Zr174   Zr   0.99858   0.23658   0.45793   1.000
    Zr175   Zr   0.07015   0.23604   0.58935   1.000
    Zr176   Zr   0.39475   0.06697   0.27613   1.000
    Zr177   Zr   0.47538   0.89531   0.31660   1.000
    Zr178   Zr   0.41777   0.02959   0.14687   1.000
    Zr179   Zr   0.49329   0.85834   0.18975   1.000
    Zr180   Zr   0.60505   0.43297   0.77615   1.000
    Zr181   Zr   0.52456   0.60464   0.81660   1.000
    Zr182   Zr   0.58218   0.47043   0.64687   1.000
    Zr183   Zr   0.50668   0.64165   0.68971   1.000
    Zr184   Zr   0.89649   0.93247   0.22368   1.000
    Zr185   Zr   0.97719   0.10459   0.18601   1.000
    Zr186   Zr   0.92002   0.96661   0.35362   1.000
    Zr187   Zr   0.99149   0.14111   0.31334   1.000
    Zr188   Zr   0.10389   0.56750   0.72373   1.000
    Zr189   Zr   0.02289   0.39551   0.68594   1.000
    Zr190   Zr   0.08002   0.53343   0.85363   1.000
    Zr191   Zr   0.00000   0.35899   0.81325   1.000
    Zr192   Zr   0.60480   0.93291   0.72406   1.000
    Zr193   Zr   0.52453   0.10469   0.68342   1.000
    Zr194   Zr   0.58217   0.97048   0.85329   1.000
    Zr195   Zr   0.50655   0.14166   0.81035   1.000
    Zr196   Zr   0.39517   0.56708   0.22401   1.000
    Zr197   Zr   0.47546   0.39533   0.18343   1.000
    Zr198   Zr   0.41776   0.52946   0.35326   1.000
    Zr199   Zr   0.49340   0.35833   0.31037   1.000
    Zr200   Zr   0.10271   0.06931   0.77692   1.000
    Zr201   Zr   0.02301   0.89618   0.81650   1.000
    Zr202   Zr   0.07965   0.03266   0.64700   1.000
    Zr203   Zr   0.00000   0.86003   0.68955   1.000
    Zr204   Zr   0.89726   0.42961   0.27641   1.000
    Zr205   Zr   0.97327   0.60408   0.31637   1.000
    Zr206   Zr   0.92033   0.46681   0.14707   1.000
    Zr207   Zr   0.99123   0.64048   0.18950   1.000
    O208    O    0.25708   0.89131   0.99297   1.000
    O209    O    0.75753   0.60947   0.99389   1.000
    O210    O    0.17714   0.43495   0.01481   1.000
    O211    O    0.12158   0.48888   0.03156   1.000
    O212    O    0.07576   0.42806   0.96903   1.000
    O213    O    0.67780   0.06447   0.01543   1.000
    O214    O    0.62172   0.01065   0.03190   1.000
    O215    O    0.57699   0.07144   0.96800   1.000
    O216    O    0.47369   0.32791   0.01960   1.000
    O217    O    0.45166   0.42789   0.05493   1.000
    O218    O    0.49599   0.38511   0.97870   1.000
    O219    O    0.97279   0.17102   0.02198   1.000
    O220    O    0.95188   0.07074   0.05757   1.000
    O221    O    0.99517   0.11421   0.98082   1.000
    O222    O    0.24929   0.45081   0.04687   1.000
    O223    O    0.24241   0.39082   0.00701   1.000
    O224    O    0.74979   0.04824   0.04771   1.000
    O225    O    0.74350   0.10836   0.00795   1.000
    O226    O    0.45088   0.25695   0.05478   1.000
    O227    O    0.48751   0.25778   0.98935   1.000
    O228    O    0.94956   0.24164   0.05731   1.000
    O229    O    0.98530   0.24138   0.99164   1.000
    O230    O    0.48617   0.83619   0.05879   1.000
    O231    O    0.48319   0.72720   0.06850   1.000
    O232    O    0.51269   0.74214   0.01072   1.000
    O233    O    0.98798   0.66364   0.05898   1.000
    O234    O    0.98540   0.77224   0.06894   1.000
    O235    O    0.01446   0.75788   0.01098   1.000
    O236    O    0.04563   0.56054   0.06384   1.000
    O237    O    0.15768   0.53796   0.07365   1.000
    O238    O    0.54484   0.93916   0.06392   1.000
    O239    O    0.65735   0.96128   0.07400   1.000
    O240    O    0.47754   0.64809   0.07572   1.000
    O241    O    0.45582   0.54273   0.07628   1.000
    O242    O    0.50417   0.61481   0.02136   1.000
    O243    O    0.97915   0.85124   0.07644   1.000
    O244    O    0.95675   0.95614   0.07816   1.000
    O245    O    0.00494   0.88504   0.02203   1.000
    O246    O    0.23766   0.51324   0.08284   1.000
    O247    O    0.35025   0.47984   0.08323   1.000
    O248    O    0.44698   0.96897   0.11000   1.000
    O249    O    0.48474   0.88335   0.13144   1.000
    O250    O    0.42336   0.92837   0.03217   1.000
    O251    O    0.94892   0.52921   0.11016   1.000
    O252    O    0.98438   0.61605   0.13137   1.000
    O253    O    0.92398   0.57172   0.03299   1.000
    O254    O    0.73756   0.98574   0.08348   1.000
    O255    O    0.85075   0.01875   0.08514   1.000
    O256    O    0.43292   0.19771   0.08828   1.000
    O257    O    0.43557   0.25218   0.11259   1.000
    O258    O    0.93163   0.30063   0.09163   1.000
    O259    O    0.93480   0.24607   0.11518   1.000
    O260    O    0.45609   0.69453   0.12223   1.000
    O261    O    0.20959   0.58388   0.11782   1.000
    O262    O    0.95846   0.80437   0.12291   1.000
    O263    O    0.70896   0.91503   0.11814   1.000
    O264    O    0.45113   0.43750   0.13854   1.000
    O265    O    0.95238   0.06160   0.14130   1.000
    O266    O    0.18511   0.63584   0.15427   1.000
    O267    O    0.24659   0.61624   0.16278   1.000
    O268    O    0.68417   0.86314   0.15465   1.000
    O269    O    0.74589   0.88240   0.16287   1.000
    O270    O    0.41985   0.02142   0.18357   1.000
    O271    O    0.92190   0.47523   0.18373   1.000
    O272    O    0.47113   0.40520   0.21974   1.000
    O273    O    0.97211   0.09438   0.22218   1.000
    O274    O    0.97837   0.61187   0.21669   1.000
    O275    O    0.47997   0.88671   0.21690   1.000
    O276    O    0.44429   0.96417   0.23216   1.000
    O277    O    0.40834   0.04011   0.24820   1.000
    O278    O    0.94449   0.53347   0.23214   1.000
    O279    O    0.91037   0.45664   0.24840   1.000
    O280    O    0.91000   0.95870   0.25218   1.000
    O281    O    0.40866   0.54015   0.25192   1.000
    O282    O    0.96939   0.59368   0.28012   1.000
    O283    O    0.47101   0.90520   0.28033   1.000
    O284    O    0.44447   0.46415   0.26794   1.000
    O285    O    0.48010   0.38670   0.28321   1.000
    O286    O    0.94527   0.03455   0.26952   1.000
    O287    O    0.97926   0.11264   0.28584   1.000
    O288    O    0.41996   0.52134   0.31655   1.000
    O289    O    0.92176   0.97577   0.31715   1.000
    O290    O    0.48462   0.38339   0.36869   1.000
    O291    O    0.98464   0.11669   0.37138   1.000
    O292    O    0.95031   0.56191   0.36161   1.000
    O293    O    0.45094   0.93747   0.36149   1.000
    O294    O    0.24593   0.11584   0.33814   1.000
    O295    O    0.74650   0.38260   0.33835   1.000
    O296    O    0.68468   0.36340   0.34623   1.000
    O297    O    0.18461   0.13568   0.34688   1.000
    O298    O    0.45527   0.19472   0.37795   1.000
    O299    O    0.95849   0.30534   0.37975   1.000
    O300    O    0.44680   0.46896   0.39013   1.000
    O301    O    0.94891   0.02944   0.39152   1.000
    O302    O    0.70917   0.41532   0.38286   1.000
    O303    O    0.20921   0.08363   0.38327   1.000
    O304    O    0.93574   0.74664   0.38708   1.000
    O305    O    0.43564   0.75215   0.38739   1.000
    O306    O    0.34994   0.97962   0.41718   1.000
    O307    O    0.45539   0.04280   0.42379   1.000
    O308    O    0.45150   0.92790   0.44509   1.000
    O309    O    0.85053   0.51949   0.41726   1.000
    O310    O    0.95649   0.45717   0.42497   1.000
    O311    O    0.95190   0.57178   0.44552   1.000
    O312    O    0.47689   0.14825   0.42441   1.000
    O313    O    0.48256   0.22736   0.43168   1.000
    O314    O    0.73747   0.48605   0.41766   1.000
    O315    O    0.65721   0.46154   0.42668   1.000
    O316    O    0.93300   0.80149   0.41038   1.000
    O317    O    0.23735   0.01294   0.41813   1.000
    O318    O    0.15755   0.03793   0.42774   1.000
    O319    O    0.43296   0.69769   0.41124   1.000
    O320    O    0.97897   0.35218   0.42631   1.000
    O321    O    0.98545   0.27317   0.43373   1.000
    O322    O    0.95069   0.74257   0.44500   1.000
    O323    O    0.45085   0.75696   0.44524   1.000
    O324    O    0.54452   0.43934   0.43636   1.000
    O325    O    0.48572   0.33632   0.44137   1.000
    O326    O    0.42286   0.42861   0.46800   1.000
    O327    O    0.74936   0.54862   0.45343   1.000
    O328    O    0.24910   0.95050   0.45408   1.000
    O329    O    0.04579   0.06092   0.43831   1.000
    O330    O    0.98819   0.16442   0.44368   1.000
    O331    O    0.92407   0.07207   0.46896   1.000
    O332    O    0.50375   0.11495   0.47872   1.000
    O333    O    0.00464   0.38596   0.48084   1.000
    O334    O    0.62124   0.51093   0.46850   1.000
    O335    O    0.12167   0.98898   0.47008   1.000
    O336    O    0.51229   0.24227   0.48938   1.000
    O337    O    0.01453   0.25879   0.49166   1.000
    O338    O    0.47362   0.82795   0.48043   1.000
    O339    O    0.48732   0.75785   0.51075   1.000
    O340    O    0.97331   0.67200   0.48062   1.000
    O341    O    0.98606   0.74236   0.51086   1.000
    O342    O    0.67714   0.56483   0.48524   1.000
    O343    O    0.74271   0.60880   0.49308   1.000
    O344    O    0.17719   0.93488   0.48657   1.000
    O345    O    0.24238   0.89057   0.49403   1.000
    O346    O    0.49583   0.88517   0.52135   1.000
    O347    O    0.99521   0.61518   0.52197   1.000
    O348    O    0.57653   0.57165   0.53221   1.000
    O349    O    0.07592   0.92844   0.53308   1.000
    O350    O    0.75743   0.10952   0.50690   1.000
    O351    O    0.25631   0.39178   0.50782   1.000
    O352    O    0.82264   0.06528   0.51464   1.000
    O353    O    0.87816   0.01123   0.53131   1.000
    O354    O    0.32204   0.43565   0.51531   1.000
    O355    O    0.37817   0.48945   0.53179   1.000
    O356    O    0.52610   0.17215   0.51963   1.000
    O357    O    0.54819   0.07217   0.55494   1.000
    O358    O    0.02706   0.32917   0.52199   1.000
    O359    O    0.04807   0.42956   0.55761   1.000
    O360    O    0.75053   0.04947   0.54669   1.000
    O361    O    0.25011   0.45191   0.54756   1.000
    O362    O    0.54898   0.24309   0.55482   1.000
    O363    O    0.05031   0.25852   0.55737   1.000
    O364    O    0.51383   0.66380   0.55879   1.000
    O365    O    0.51685   0.77280   0.56850   1.000
    O366    O    0.01210   0.83652   0.55893   1.000
    O367    O    0.01475   0.72796   0.56896   1.000
    O368    O    0.95412   0.93954   0.56367   1.000
    O369    O    0.84206   0.96211   0.57335   1.000
    O370    O    0.45511   0.56089   0.56386   1.000
    O371    O    0.34262   0.53883   0.57385   1.000
    O372    O    0.52249   0.85191   0.57573   1.000
    O373    O    0.54416   0.95729   0.57628   1.000
    O374    O    0.02076   0.64895   0.57650   1.000
    O375    O    0.04323   0.54416   0.57820   1.000
    O376    O    0.76213   0.98694   0.58258   1.000
    O377    O    0.64964   0.02032   0.58313   1.000
    O378    O    0.55298   0.53104   0.61000   1.000
    O379    O    0.51523   0.61665   0.63143   1.000
    O380    O    0.05096   0.97058   0.61010   1.000
    O381    O    0.01113   0.88426   0.63137   1.000
    O382    O    0.26242   0.51441   0.58332   1.000
    O383    O    0.14926   0.48153   0.58507   1.000
    O384    O    0.56698   0.30233   0.58884   1.000
    O385    O    0.56435   0.24785   0.61261   1.000
    O386    O    0.06822   0.19950   0.59169   1.000
    O387    O    0.06507   0.25404   0.61530   1.000
    O388    O    0.54398   0.80546   0.62226   1.000
    O389    O    0.79011   0.91619   0.61746   1.000
    O390    O    0.29109   0.58510   0.61797   1.000
    O391    O    0.04128   0.69578   0.62306   1.000
    O392    O    0.54885   0.06255   0.63853   1.000
    O393    O    0.04770   0.43864   0.64128   1.000
    O394    O    0.81455   0.86428   0.65397   1.000
    O395    O    0.75309   0.88386   0.66234   1.000
    O396    O    0.31594   0.63699   0.65449   1.000
    O397    O    0.25426   0.61771   0.66272   1.000
    O398    O    0.58007   0.47859   0.68357   1.000
    O399    O    0.07771   0.02418   0.68389   1.000
    O400    O    0.52886   0.09481   0.71973   1.000
    O401    O    0.02796   0.40571   0.72211   1.000
    O402    O    0.01586   0.88840   0.71683   1.000
    O403    O    0.51999   0.61327   0.71688   1.000
    O404    O    0.55563   0.53582   0.73215   1.000
    O405    O    0.59151   0.45985   0.74821   1.000
    O406    O    0.05374   0.96624   0.73245   1.000
    O407    O    0.08923   0.04250   0.74885   1.000
    O408    O    0.09027   0.54129   0.75221   1.000
    O409    O    0.59131   0.95983   0.75196   1.000
    O410    O    0.52893   0.59477   0.78032   1.000
    O411    O    0.02736   0.90647   0.78031   1.000
    O412    O    0.55551   0.03584   0.76796   1.000
    O413    O    0.51987   0.11330   0.78320   1.000
    O414    O    0.05484   0.46550   0.76949   1.000
    O415    O    0.01651   0.38745   0.78577   1.000
    O416    O    0.57999   0.97862   0.81658   1.000
    O417    O    0.07833   0.52426   0.81716   1.000
    O418    O    0.51529   0.11659   0.86862   1.000
    O419    O    0.01105   0.38340   0.87132   1.000
    O420    O    0.04757   0.93826   0.86155   1.000
    O421    O    0.54896   0.56248   0.86149   1.000
    O422    O    0.75390   0.38417   0.83803   1.000
    O423    O    0.25337   0.11750   0.83817   1.000
    O424    O    0.31518   0.13670   0.84614   1.000
    O425    O    0.81528   0.36441   0.84678   1.000
    O426    O    0.54446   0.30534   0.87797   1.000
    O427    O    0.04127   0.19478   0.87973   1.000
    O428    O    0.55310   0.03101   0.89009   1.000
    O429    O    0.05106   0.47062   0.89151   1.000
    O430    O    0.29065   0.08477   0.88272   1.000
    O431    O    0.79069   0.41645   0.88314   1.000
    O432    O    0.56433   0.74782   0.88741   1.000
    O433    O    0.06498   0.75361   0.88736   1.000
    O434    O    0.64993   0.52035   0.91713   1.000
    O435    O    0.54441   0.45721   0.92379   1.000
    O436    O    0.54843   0.57207   0.94510   1.000
    O437    O    0.14908   0.98060   0.91704   1.000
    O438    O    0.04314   0.04296   0.92485   1.000
    O439    O    0.04803   0.92838   0.94547   1.000
    O440    O    0.26231   0.01402   0.91749   1.000
    O441    O    0.34260   0.03850   0.92657   1.000
    O442    O    0.52284   0.35181   0.92441   1.000
    O443    O    0.51720   0.27269   0.93167   1.000
    O444    O    0.76254   0.48710   0.91800   1.000
    O445    O    0.84240   0.46224   0.92756   1.000
    O446    O    0.06806   0.69892   0.91069   1.000
    O447    O    0.56702   0.80229   0.91125   1.000
    O448    O    0.02080   0.14796   0.92630   1.000
    O449    O    0.01434   0.22697   0.93368   1.000
    O450    O    0.05023   0.75776   0.94525   1.000
    O451    O    0.54912   0.74302   0.94520   1.000
    O452    O    0.45533   0.06067   0.93627   1.000
    O453    O    0.51411   0.16370   0.94130   1.000
    O454    O    0.25041   0.95146   0.95328   1.000
    O455    O    0.75080   0.54952   0.95395   1.000
    O456    O    0.95416   0.43924   0.93819   1.000
    O457    O    0.01167   0.33570   0.94363   1.000
    O458    O    0.37859   0.98910   0.96843   1.000
    O459    O    0.87832   0.51124   0.96986   1.000
    O460    O    0.52636   0.67204   0.98040   1.000
    O461    O    0.02721   0.82825   0.98080   1.000
    O462    O    0.32266   0.93523   0.98514   1.000
    O463    O    0.82276   0.56525   0.98638   1.000
loop_
    _geom_bond_atom_site_label_1
    _geom_bond_atom_site_label_2
    _geom_bond_distance
    _geom_bond_site_symmetry_2
    _ccdc_geom_bond_type
    Zr52   O208      0.54240  1_554   S
    Zr103  O208      0.54240      .   S
    Zr22   O209      0.54250  1_554   S
    Zr73   O209      0.54250      .   S
    Zr153  O210      0.66231      .   S
    Zr97   O210      0.66231      .   S
    Zr153  O211      0.69516      .   S
    Zr154  O211      0.69516      .   S
    Zr153  O212      1.01404  1_554   S
    Zr7    O212      1.01404      .   S
    Zr129  O213      0.66275      .   S
    Zr79   O213      0.66275      .   S
    Zr129  O214      0.69626      .   S
    Zr130  O214      0.69626  1_565   S
    Zr129  O215      1.02455  1_554   S
    Zr9    O215      1.02455      .   S
    Zr124  O216      0.67694      .   S
    Zr74   O216      0.67694      .   S
    Zr124  O217      1.03138      .   S
    Zr10   O217      1.03138      .   S
    Zr124  O218      0.69808  1_554   S
    Zr125  O218      0.69808      .   S
    Zr164  O219      0.67692      .   S
    Zr104  O219      0.67692      .   S
    Zr164  O220      1.03496      .   S
    Zr4    O220      1.03496      .   S
    Zr164  O221      0.69830  1_554   S
    Zr165  O221      0.69830  1_455   S
    Zr97   O222      0.68011      .   S
    Zr152  O222      0.68011      .   S
    Zr97   O223      0.54246      .   S
    Zr46   O223      0.54246  1_556   S
    Zr79   O224      0.68071      .   S
    Zr128  O224      0.68071      .   S
    Zr79   O225      0.54239      .   S
    Zr28   O225      0.54239  1_556   S
    Zr74   O226      0.67902      .   S
    Zr127  O226      0.67902      .   S
    Zr74   O227      0.68467  1_554   S
    Zr126  O227      0.68467      .   S
    Zr104  O228      0.67834      .   S
    Zr167  O228      0.67834      .   S
    Zr104  O229      0.68489  1_554   S
    Zr166  O229      0.68489  1_455   S
    Zr158  O230      1.04565      .   S
    Zr1    O230      1.04565      .   S
    Zr158  O231      0.67842      .   S
    Zr99   O231      0.67842      .   S
    Zr158  O232      0.68517      .   S
    Zr98   O232      0.68517  1_556   S
    Zr134  O233      1.04370      .   S
    Zr15   O233      1.04370      .   S
    Zr134  O234      0.67854      .   S
    Zr81   O234      0.67854      .   S
    Zr134  O235      0.68466  1_655   S
    Zr80   O235      0.68466  1_556   S
    Zr154  O236      1.00765      .   S
    Zr15   O236      1.00765  1_655   S
    Zr154  O237      0.67293      .   S
    Zr96   O237      0.67293      .   S
    Zr130  O238      1.01022      .   S
    Zr1    O238      1.01022      .   S
    Zr130  O239      0.67347      .   S
    Zr78   O239      0.67347      .   S
    Zr157  O240      0.66333      .   S
    Zr99   O240      0.66333      .   S
    Zr157  O241      1.00364      .   S
    Zr10   O241      1.00364      .   S
    Zr157  O242      0.69808      .   S
    Zr156  O242      0.69808  1_556   S
    Zr133  O243      0.66305      .   S
    Zr81   O243      0.66305      .   S
    Zr133  O244      1.00406      .   S
    Zr4    O244      1.00406  1_545   S
    Zr133  O245      0.69798  1_655   S
    Zr132  O245      0.69798  1_556   S
    Zr152  O246      0.68509      .   S
    Zr96   O246      0.68509      .   S
    Zr152  O247      1.02027      .   S
    Zr10   O247      1.02027      .   S
    Zr1    O248      1.12163      .   S
    Zr178  O248      1.12163  1_545   S
    Zr1    O249      1.05636      .   S
    Zr179  O249      1.05636      .   S
    Zr1    O250      1.02148      .   S
    Zr161  O250      1.02148  1_556   S
    Zr15   O251      1.13717      .   S
    Zr206  O251      1.13717      .   S
    Zr15   O252      1.04858      .   S
    Zr207  O252      1.04858      .   S
    Zr15   O253      1.01864      .   S
    Zr121  O253      1.01864  1_556   S
    Zr128  O254      0.68498  1_545   S
    Zr78   O254      0.68498      .   S
    Zr128  O255      1.02698      .   S
    Zr4    O255      1.02698      .   S
    Zr127  O256      0.51149      .   S
    Zr27   O256      0.51149      .   S
    Zr127  O257      0.51209      .   S
    Zr26   O257      0.51209      .   S
    Zr167  O258      0.51266      .   S
    Zr57   O258      0.51266      .   S
    Zr167  O259      0.51259      .   S
    Zr56   O259      0.51259      .   S
    Zr99   O260      0.54081      .   S
    Zr47   O260      0.54081      .   S
    Zr96   O261      0.68089      .   S
    Zr155  O261      0.68089      .   S
    Zr81   O262      0.54091      .   S
    Zr29   O262      0.54091      .   S
    Zr78   O263      0.68129      .   S
    Zr131  O263      0.68129      .   S
    Zr10   O264      1.01533      .   S
    Zr197  O264      1.01533      .   S
    Zr4    O265      1.02098      .   S
    Zr185  O265      1.02098      .   S
    Zr155  O266      0.51125      .   S
    Zr48   O266      0.51125      .   S
    Zr155  O267      0.51541      .   S
    Zr49   O267      0.51541      .   S
    Zr131  O268      0.51150      .   S
    Zr30   O268      0.51150      .   S
    Zr131  O269      0.51517      .   S
    Zr31   O269      0.51517      .   S
    Zr178  O270      0.63447      .   S
    Zr64   O270      0.63447      .   S
    Zr206  O271      0.63428      .   S
    Zr106  O271      0.63428      .   S
    Zr197  O272      0.63475      .   S
    Zr95   O272      0.63475      .   S
    Zr185  O273      0.63439      .   S
    Zr77   O273      0.63439      .   S
    Zr207  O274      0.63354      .   S
    Zr107  O274      0.63354      .   S
    Zr179  O275      0.63317      .   S
    Zr65   O275      0.63317      .   S
    Zr64   O276      0.77323  1_545   S
    Zr65   O276      0.77323      .   S
    Zr64   O277      0.63101      .   S
    Zr176  O277      0.63101      .   S
    Zr106  O278      0.77401      .   S
    Zr107  O278      0.77401      .   S
    Zr106  O279      0.63117      .   S
    Zr204  O279      0.63117      .   S
    Zr184  O280      0.63228      .   S
    Zr76   O280      0.63228      .   S
    Zr196  O281      0.63083      .   S
    Zr94   O281      0.63083      .   S
    Zr107  O282      0.63470      .   S
    Zr205  O282      0.63470      .   S
    Zr65   O283      0.63409      .   S
    Zr177  O283      0.63409      .   S
    Zr95   O284      0.77304      .   S
    Zr94   O284      0.77304      .   S
    Zr95   O285      0.63301      .   S
    Zr199  O285      0.63301      .   S
    Zr77   O286      0.77290      .   S
    Zr76   O286      0.77290  1_565   S
    Zr77   O287      0.63383      .   S
    Zr187  O287      0.63383      .   S
    Zr94   O288      0.63461      .   S
    Zr198  O288      0.63461      .   S
    Zr76   O289      0.63312      .   S
    Zr186  O289      0.63312      .   S
    Zr199  O290      1.05740      .   S
    Zr11   O290      1.05740      .   S
    Zr187  O291      1.04740      .   S
    Zr5    O291      1.04740      .   S
    Zr205  O292      1.01405      .   S
    Zr14   O292      1.01405      .   S
    Zr177  O293      1.01619      .   S
    Zr0    O293      1.01619      .   S
    Zr19   O294      0.51532      .   S
    Zr115  O294      0.51532      .   S
    Zr61   O295      0.51528      .   S
    Zr171  O295      0.51528      .   S
    Zr60   O296      0.51150      .   S
    Zr171  O296      0.51150      .   S
    Zr18   O297      0.51155      .   S
    Zr115  O297      0.51155      .   S
    Zr17   O298      0.54079      .   S
    Zr69   O298      0.54079      .   S
    Zr59   O299      0.54086      .   S
    Zr111  O299      0.54086      .   S
    Zr198  O300      1.11933      .   S
    Zr11   O300      1.11933      .   S
    Zr186  O301      1.15199  1_565   S
    Zr5    O301      1.15199      .   S
    Zr171  O302      0.68101      .   S
    Zr108  O302      0.68101      .   S
    Zr115  O303      0.68087      .   S
    Zr66   O303      0.68087      .   S
    Zr38   O304      0.51207      .   S
    Zr143  O304      0.51207      .   S
    Zr44   O305      0.51205      .   S
    Zr151  O305      0.51205      .   S
    Zr0    O306      1.02193      .   S
    Zr112  O306      1.02193      .   S
    Zr0    O307      1.00406  1_565   S
    Zr117  O307      1.00406      .   S
    Zr0    O308      1.03112      .   S
    Zr148  O308      1.03112      .   S
    Zr14   O309      1.02393      .   S
    Zr168  O309      1.02393      .   S
    Zr14   O310      1.00322      .   S
    Zr173  O310      1.00322      .   S
    Zr14   O311      1.03087      .   S
    Zr140  O311      1.03087      .   S
    Zr69   O312      0.66331      .   S
    Zr117  O312      0.66331      .   S
    Zr69   O313      0.67851      .   S
    Zr118  O313      0.67851      .   S
    Zr108  O314      0.68500      .   S
    Zr168  O314      0.68500      .   S
    Zr108  O315      0.67351      .   S
    Zr170  O315      0.67351      .   S
    Zr39   O316      0.51245      .   S
    Zr143  O316      0.51245      .   S
    Zr66   O317      0.68500      .   S
    Zr112  O317      0.68500  1_565   S
    Zr66   O318      0.67312      .   S
    Zr114  O318      0.67312      .   S
    Zr45   O319      0.51200      .   S
    Zr151  O319      0.51200      .   S
    Zr111  O320      0.66314      .   S
    Zr173  O320      0.66314      .   S
    Zr111  O321      0.67846      .   S
    Zr174  O321      0.67846      .   S
    Zr143  O322      0.67826      .   S
    Zr86   O322      0.67826      .   S
    Zr151  O323      0.67906      .   S
    Zr92   O323      0.67906      .   S
    Zr11   O324      1.01117      .   S
    Zr170  O324      1.01117      .   S
    Zr11   O325      1.04522      .   S
    Zr118  O325      1.04522      .   S
    Zr11   O326      1.02446      .   S
    Zr137  O326      1.02446      .   S
    Zr168  O327      0.68050      .   S
    Zr109  O327      0.68050      .   S
    Zr112  O328      0.68071      .   S
    Zr67   O328      0.68071      .   S
    Zr5    O329      1.00620  1_655   S
    Zr114  O329      1.00620      .   S
    Zr5    O330      1.04530      .   S
    Zr174  O330      1.04530      .   S
    Zr5    O331      1.01398      .   S
    Zr145  O331      1.01398      .   S
    Zr117  O332      0.69792      .   S
    Zr116  O332      0.69792      .   S
    Zr173  O333      0.69851  1_655   S
    Zr172  O333      0.69851      .   S
    Zr170  O334      0.69584      .   S
    Zr169  O334      0.69584      .   S
    Zr114  O335      0.69549  1_545   S
    Zr113  O335      0.69549      .   S
    Zr118  O336      0.68446      .   S
    Zr68   O336      0.68446      .   S
    Zr174  O337      0.68421  1_655   S
    Zr110  O337      0.68421      .   S
    Zr92   O338      0.67687      .   S
    Zr148  O338      0.67687      .   S
    Zr92   O339      0.68444      .   S
    Zr150  O339      0.68444      .   S
    Zr86   O340      0.67709      .   S
    Zr140  O340      0.67709      .   S
    Zr86   O341      0.68475      .   S
    Zr142  O341      0.68475  1_455   S
    Zr109  O342      0.66246      .   S
    Zr169  O342      0.66246      .   S
    Zr109  O343      0.54241      .   S
    Zr58   O343      0.54241      .   S
    Zr67   O344      0.66241      .   S
    Zr113  O344      0.66241      .   S
    Zr67   O345      0.54237      .   S
    Zr16   O345      0.54237      .   S
    Zr148  O346      0.69788      .   S
    Zr149  O346      0.69788      .   S
    Zr140  O347      0.69799      .   S
    Zr141  O347      0.69799  1_455   S
    Zr169  O348      1.02113      .   S
    Zr3    O348      1.02113      .   S
    Zr113  O349      1.01900      .   S
    Zr13   O349      1.01900      .   S
    Zr40   O350      0.54239      .   S
    Zr91   O350      0.54239      .   S
    Zr34   O351      0.54236      .   S
    Zr85   O351      0.54236      .   S
    Zr145  O352      0.66236      .   S
    Zr91   O352      0.66236      .   S
    Zr145  O353      0.69532      .   S
    Zr146  O353      0.69532  1_565   S
    Zr137  O354      0.66275      .   S
    Zr85   O354      0.66275      .   S
    Zr137  O355      0.69600      .   S
    Zr138  O355      0.69600      .   S
    Zr116  O356      0.67690      .   S
    Zr68   O356      0.67690      .   S
    Zr116  O357      1.03124      .   S
    Zr8    O357      1.03124      .   S
    Zr172  O358      0.67687      .   S
    Zr110  O358      0.67687      .   S
    Zr172  O359      1.03596      .   S
    Zr6    O359      1.03596      .   S
    Zr91   O360      0.68039      .   S
    Zr144  O360      0.68039      .   S
    Zr85   O361      0.68073      .   S
    Zr136  O361      0.68073      .   S
    Zr68   O362      0.67904      .   S
    Zr119  O362      0.67904      .   S
    Zr110  O363      0.67946      .   S
    Zr175  O363      0.67946      .   S
    Zr150  O364      1.04554      .   S
    Zr3    O364      1.04554      .   S
    Zr150  O365      0.67843      .   S
    Zr93   O365      0.67843      .   S
    Zr142  O366      1.04244      .   S
    Zr13   O366      1.04244      .   S
    Zr142  O367      0.67838      .   S
    Zr87   O367      0.67838      .   S
    Zr146  O368      1.00794      .   S
    Zr13   O368      1.00794  1_455   S
    Zr146  O369      0.67304      .   S
    Zr90   O369      0.67304      .   S
    Zr138  O370      1.01007      .   S
    Zr3    O370      1.01007      .   S
    Zr138  O371      0.67343      .   S
    Zr84   O371      0.67343      .   S
    Zr149  O372      0.66334      .   S
    Zr93   O372      0.66334      .   S
    Zr149  O373      1.00372      .   S
    Zr8    O373      1.00372  1_545   S
    Zr141  O374      0.66300      .   S
    Zr87   O374      0.66300      .   S
    Zr141  O375      1.00314      .   S
    Zr6    O375      1.00314      .   S
    Zr144  O376      0.68511  1_545   S
    Zr90   O376      0.68511      .   S
    Zr144  O377      1.01999      .   S
    Zr8    O377      1.01999      .   S
    Zr3    O378      1.12110      .   S
    Zr182  O378      1.12110      .   S
    Zr3    O379      1.05621      .   S
    Zr183  O379      1.05621      .   S
    Zr13   O380      1.13375      .   S
    Zr202  O380      1.13375  1_545   S
    Zr13   O381      1.05494      .   S
    Zr203  O381      1.05494      .   S
    Zr136  O382      0.68481      .   S
    Zr84   O382      0.68481      .   S
    Zr136  O383      1.02689      .   S
    Zr6    O383      1.02689      .   S
    Zr119  O384      0.51204      .   S
    Zr21   O384      0.51204      .   S
    Zr119  O385      0.51159      .   S
    Zr20   O385      0.51159      .   S
    Zr175  O386      0.51249      .   S
    Zr63   O386      0.51249      .   S
    Zr175  O387      0.51209      .   S
    Zr62   O387      0.51209      .   S
    Zr93   O388      0.54080      .   S
    Zr41   O388      0.54080      .   S
    Zr90   O389      0.68084      .   S
    Zr147  O389      0.68084      .   S
    Zr84   O390      0.68134      .   S
    Zr139  O390      0.68134      .   S
    Zr87   O391      0.54090      .   S
    Zr35   O391      0.54090      .   S
    Zr8    O392      1.01550      .   S
    Zr193  O392      1.01550      .   S
    Zr6    O393      1.02191      .   S
    Zr189  O393      1.02191      .   S
    Zr147  O394      0.51148      .   S
    Zr42   O394      0.51148      .   S
    Zr147  O395      0.51537      .   S
    Zr43   O395      0.51537      .   S
    Zr139  O396      0.51154      .   S
    Zr36   O396      0.51154      .   S
    Zr139  O397      0.51514      .   S
    Zr37   O397      0.51514      .   S
    Zr182  O398      0.63448      .   S
    Zr70   O398      0.63448      .   S
    Zr202  O399      0.63838      .   S
    Zr100  O399      0.63838      .   S
    Zr193  O400      0.63477      .   S
    Zr89   O400      0.63477      .   S
    Zr189  O401      0.63432      .   S
    Zr83   O401      0.63432      .   S
    Zr203  O402      0.64406      .   S
    Zr101  O402      0.64406      .   S
    Zr183  O403      0.63314      .   S
    Zr71   O403      0.63314      .   S
    Zr70   O404      0.77308      .   S
    Zr71   O404      0.77308      .   S
    Zr70   O405      0.63098      .   S
    Zr180  O405      0.63098      .   S
    Zr100  O406      0.77437  1_545   S
    Zr101  O406      0.77437      .   S
    Zr100  O407      0.63125      .   S
    Zr200  O407      0.63125      .   S
    Zr188  O408      0.63240      .   S
    Zr82   O408      0.63240      .   S
    Zr192  O409      0.63082      .   S
    Zr88   O409      0.63082      .   S
    Zr71   O410      0.63432      .   S
    Zr181  O410      0.63432      .   S
    Zr101  O411      0.63407      .   S
    Zr201  O411      0.63407      .   S
    Zr89   O412      0.77319      .   S
    Zr88   O412      0.77319  1_565   S
    Zr89   O413      0.63305      .   S
    Zr195  O413      0.63305      .   S
    Zr83   O414      0.77279      .   S
    Zr82   O414      0.77279      .   S
    Zr83   O415      0.65023      .   S
    Zr191  O415      0.65023      .   S
    Zr88   O416      0.63459      .   S
    Zr194  O416      0.63459      .   S
    Zr82   O417      0.63309      .   S
    Zr190  O417      0.63309      .   S
    Zr195  O418      1.05644      .   S
    Zr9    O418      1.05644      .   S
    Zr191  O419      1.05370      .   S
    Zr7    O419      1.05370      .   S
    Zr201  O420      1.01699      .   S
    Zr12   O420      1.01699      .   S
    Zr181  O421      1.01575      .   S
    Zr2    O421      1.01575      .   S
    Zr25   O422      0.51531      .   S
    Zr123  O422      0.51531      .   S
    Zr55   O423      0.51519      .   S
    Zr163  O423      0.51519      .   S
    Zr54   O424      0.51148      .   S
    Zr163  O424      0.51148      .   S
    Zr24   O425      0.51137      .   S
    Zr123  O425      0.51137      .   S
    Zr23   O426      0.54086      .   S
    Zr75   O426      0.54086      .   S
    Zr53   O427      0.54084      .   S
    Zr105  O427      0.54084      .   S
    Zr194  O428      1.11940  1_565   S
    Zr9    O428      1.11940      .   S
    Zr190  O429      1.15218      .   S
    Zr7    O429      1.15218      .   S
    Zr163  O430      0.68111      .   S
    Zr102  O430      0.68111      .   S
    Zr123  O431      0.68084      .   S
    Zr72   O431      0.68084      .   S
    Zr50   O432      0.51145      .   S
    Zr159  O432      0.51145      .   S
    Zr32   O433      0.51203      .   S
    Zr135  O433      0.51203      .   S
    Zr2    O434      1.02135      .   S
    Zr120  O434      1.02135      .   S
    Zr2    O435      1.00395      .   S
    Zr125  O435      1.00395      .   S
    Zr2    O436      1.03136      .   S
    Zr156  O436      1.03136      .   S
    Zr12   O437      1.02550      .   S
    Zr160  O437      1.02550      .   S
    Zr12   O438      1.00372  1_565   S
    Zr165  O438      1.00372      .   S
    Zr12   O439      1.03085      .   S
    Zr132  O439      1.03085      .   S
    Zr102  O440      0.68522      .   S
    Zr160  O440      0.68522  1_565   S
    Zr102  O441      0.67355      .   S
    Zr162  O441      0.67355      .   S
    Zr75   O442      0.66334      .   S
    Zr125  O442      0.66334      .   S
    Zr75   O443      0.67845      .   S
    Zr126  O443      0.67845      .   S
    Zr72   O444      0.68489      .   S
    Zr120  O444      0.68489      .   S
    Zr72   O445      0.67306      .   S
    Zr122  O445      0.67306      .   S
    Zr33   O446      0.51252      .   S
    Zr135  O446      0.51252      .   S
    Zr51   O447      0.51197      .   S
    Zr159  O447      0.51197      .   S
    Zr105  O448      0.66320      .   S
    Zr165  O448      0.66320      .   S
    Zr105  O449      0.67853      .   S
    Zr166  O449      0.67853      .   S
    Zr135  O450      0.67886      .   S
    Zr80   O450      0.67886      .   S
    Zr159  O451      0.67901      .   S
    Zr98   O451      0.67901      .   S
    Zr9    O452      1.01154      .   S
    Zr162  O452      1.01154      .   S
    Zr9    O453      1.04590      .   S
    Zr126  O453      1.04590      .   S
    Zr160  O454      0.68063      .   S
    Zr103  O454      0.68063      .   S
    Zr120  O455      0.68061      .   S
    Zr73   O455      0.68061      .   S
    Zr7    O456      1.00618  1_455   S
    Zr122  O456      1.00618      .   S
    Zr7    O457      1.04484      .   S
    Zr166  O457      1.04484      .   S
    Zr162  O458      0.69597  1_545   S
    Zr161  O458      0.69597      .   S
    Zr122  O459      0.69531      .   S
    Zr121  O459      0.69531      .   S
    Zr98   O460      0.67697      .   S
    Zr156  O460      0.67697      .   S
    Zr80   O461      0.67684      .   S
    Zr132  O461      0.67684      .   S
    Zr103  O462      0.66247      .   S
    Zr161  O462      0.66247      .   S
    Zr73   O463      0.66238      .   S
    Zr121  O463      0.66238      .   S
