# CIF file generated by openbabel 2.4.90, see http://openbabel.sf.net
data_I
_chemical_name_common ''
_cell_length_a 21.592
_cell_length_b 12.585
_cell_length_c 17.174
_cell_angle_alpha 89.958
_cell_angle_beta 95.414
_cell_angle_gamma 90.039
_space_group_name_H-M_alt 'P 1'
_space_group_name_Hall 'P 1'
loop_
    _symmetry_equiv_pos_as_xyz
    x,y,z
loop_
    _atom_site_label
    _atom_site_type_symbol
    _atom_site_fract_x
    _atom_site_fract_y
    _atom_site_fract_z
    _atom_site_occupancy
    Zr0     Zr   0.13534   0.26437   0.39733   1.000
    Zr1     Zr   0.63511   0.26416   0.39984   1.000
    Zr2     Zr   0.39469   0.25983   0.54035   1.000
    Zr3     Zr   0.89584   0.25947   0.54266   1.000
    Zr4     Zr   0.11473   0.76443   0.10024   1.000
    Zr5     Zr   0.61367   0.76429   0.10247   1.000
    Zr6     Zr   0.35466   0.75972   0.95696   1.000
    Zr7     Zr   0.85375   0.75945   0.95972   1.000
    Zr8     Zr   0.36486   0.73584   0.60013   1.000
    Zr9     Zr   0.86463   0.73562   0.60263   1.000
    Zr10    Zr   0.10413   0.74053   0.45700   1.000
    Zr11    Zr   0.60528   0.74017   0.45962   1.000
    Zr12    Zr   0.38630   0.23570   0.89749   1.000
    Zr13    Zr   0.88524   0.23557   0.89972   1.000
    Zr14    Zr   0.14622   0.24055   0.04025   1.000
    Zr15    Zr   0.64531   0.24028   0.04302   1.000
    N16     N    0.58701   0.27317   0.08442   1.000
    O17     O    0.50674   0.26985   0.00264   1.000
    O18     O    0.60926   0.27345   0.21292   1.000
    N19     N    0.33683   0.22688   0.58280   1.000
    O20     O    0.35969   0.22639   0.71101   1.000
    O21     O    0.25621   0.23024   0.50162   1.000
    N22     N    0.91246   0.72709   0.91707   1.000
    O23     O    0.89018   0.72661   0.78900   1.000
    O24     O    0.99331   0.73056   0.99748   1.000
    N25     N    0.07840   0.31941   0.43251   1.000
    O26     O    0.00554   0.27748   0.47498   1.000
    O27     O    0.09329   0.49020   0.44722   1.000
    N28     N    0.67070   0.81905   0.06773   1.000
    O29     O    0.65598   0.98991   0.05290   1.000
    O30     O    0.74373   0.77723   0.02604   1.000
    N31     N    0.41296   0.72682   0.91552   1.000
    O32     O    0.49323   0.73014   0.99730   1.000
    O33     O    0.39071   0.72654   0.78703   1.000
    N34     N    0.17186   0.81950   0.06583   1.000
    O35     O    0.24476   0.77765   0.02379   1.000
    O36     O    0.15702   0.99027   0.05074   1.000
    N37     N    0.16280   0.77302   0.41551   1.000
    O38     O    0.14050   0.77346   0.28711   1.000
    O39     O    0.24354   0.76960   0.49641   1.000
    N40     N    0.42165   0.68074   0.56598   1.000
    O41     O    0.40635   0.51006   0.55076   1.000
    O42     O    0.49491   0.72257   0.52487   1.000
    N43     N    0.57832   0.31878   0.43398   1.000
    O44     O    0.59362   0.48970   0.44920   1.000
    O45     O    0.50506   0.27719   0.47509   1.000
    N46     N    0.83717   0.22697   0.58443   1.000
    O47     O    0.75643   0.23040   0.50355   1.000
    O48     O    0.85947   0.22654   0.71284   1.000
    N49     N    0.08751   0.27291   0.08278   1.000
    O50     O    0.10979   0.27338   0.21090   1.000
    O51     O    0.00667   0.26943   0.00243   1.000
    N52     N    0.92158   0.68014   0.56743   1.000
    O53     O    0.90668   0.50957   0.55265   1.000
    O54     O    0.99443   0.72229   0.52490   1.000
    N55     N    0.32927   0.18095   0.93222   1.000
    O56     O    0.25624   0.22277   0.97392   1.000
    O57     O    0.34399   0.01008   0.94706   1.000
    N58     N    0.82811   0.18050   0.93413   1.000
    O59     O    0.75521   0.22235   0.97617   1.000
    O60     O    0.84295   0.00973   0.94922   1.000
    N61     N    0.66314   0.77311   0.41716   1.000
    O62     O    0.64028   0.77360   0.28894   1.000
    O63     O    0.74377   0.76975   0.49834   1.000
    O64     O    0.65314   0.80216   0.07411   1.000
    O65     O    0.15425   0.80249   0.07210   1.000
    O66     O    0.60435   0.26942   0.07226   1.000
    O67     O    0.84572   0.19751   0.92786   1.000
    O68     O    0.85466   0.23055   0.57215   1.000
    O69     O    0.35403   0.23064   0.57030   1.000
    O70     O    0.40418   0.69786   0.57218   1.000
    O71     O    0.90404   0.69733   0.57398   1.000
    O72     O    0.89494   0.73059   0.92936   1.000
    O73     O    0.39562   0.73057   0.92762   1.000
    O74     O    0.59579   0.30190   0.42779   1.000
    O75     O    0.09593   0.30244   0.42598   1.000
    O76     O    0.64594   0.76935   0.42966   1.000
    O77     O    0.10503   0.26940   0.07024   1.000
    O78     O    0.14531   0.76944   0.42773   1.000
    O79     O    0.34683   0.19784   0.92585   1.000
loop_
    _geom_bond_atom_site_label_1
    _geom_bond_atom_site_label_2
    _geom_bond_distance
    _geom_bond_site_symmetry_2
    _ccdc_geom_bond_type
    N16    O17       2.12562      .   S
    Zr12   O17       3.05325  1_556   S
    N16    O18       2.21387      .   S
    Zr1    O18       3.20806      .   S
    N19    O20       2.21070      .   S
    Zr12   O20       3.20209      .   S
    N19    O21       2.12561      .   S
    Zr0    O21       3.05302      .   S
    N22    O23       2.20659      .   S
    Zr9    O23       3.19821      .   S
    N22    O24       2.12156      .   S
    Zr4    O24       3.04912  1_454   S
    N25    O26       1.87078      .   S
    Zr3    O26       2.74425  1_655   S
    N25    O27       2.18448      .   S
    Zr10   O27       3.16228      .   S
    N28    O29       2.18512      .   S
    Zr15   O29       3.16267  1_545   S
    N28    O30       1.86840      .   S
    Zr7    O30       2.73893  1_556   S
    N31    O32       2.12577      .   S
    Zr5    O32       3.05337  1_554   S
    N31    O33       2.21358      .   S
    Zr8    O33       3.20777      .   S
    N34    O35       1.86881      .   S
    Zr6    O35       2.74122  1_556   S
    N34    O36       2.18474      .   S
    Zr14   O36       3.16234  1_545   S
    N37    O38       2.21225      .   S
    Zr4    O38       3.20720      .   S
    N37    O39       2.12478      .   S
    Zr8    O39       3.05532      .   S
    N40    O41       2.18523      .   S
    Zr2    O41       3.16282      .   S
    N40    O42       1.86729      .   S
    Zr11   O42       2.73625      .   S
    N43    O44       2.18817      .   S
    Zr11   O44       3.16581      .   S
    N43    O45       1.86648      .   S
    Zr2    O45       2.73601      .   S
    N46    O47       2.12470      .   S
    Zr1    O47       3.05523      .   S
    N46    O48       2.21232      .   S
    Zr13   O48       3.20734      .   S
    N49    O50       2.20758      .   S
    Zr0    O50       3.19913      .   S
    N49    O51       2.12099      .   S
    Zr13   O51       3.04864  1_656   S
    N52    O53       2.18185      .   S
    Zr3    O53       3.15966      .   S
    N52    O54       1.87213      .   S
    Zr10   O54       2.74638  1_455   S
    N55    O56       1.86845      .   S
    Zr14   O56       2.73897  1_554   S
    N55    O57       2.18514      .   S
    Zr6    O57       3.16268  1_565   S
    N58    O59       1.86887      .   S
    Zr15   O59       2.74136  1_554   S
    N58    O60       2.18475      .   S
    Zr7    O60       3.16235  1_565   S
    N61    O62       2.21069      .   S
    Zr5    O62       3.20200      .   S
    N61    O63       2.12566      .   S
    Zr9    O63       3.05305      .   S
    Zr5    O64       1.12623      .   S
    N28    O64       0.45674      .   S
    Zr4    O65       1.12601      .   S
    N34    O65       0.45787      .   S
    Zr15   O66       1.11952      .   S
    N16    O66       0.44816      .   S
    Zr13   O67       1.12599      .   S
    N58    O67       0.45786      .   S
    Zr3    O68       1.12426      .   S
    N46    O68       0.45171      .   S
    Zr2    O69       1.12017      .   S
    N19    O69       0.44855      .   S
    Zr8    O70       1.12131      .   S
    N40    O70       0.45589      .   S
    Zr9    O71       1.13067      .   S
    N52    O71       0.45931      .   S
    Zr7    O72       1.13264      .   S
    N22    O72       0.45257      .   S
    Zr6    O73       1.12044      .   S
    N31    O73       0.44755      .   S
    Zr1    O74       1.12000      .   S
    N43    O74       0.45448      .   S
    Zr0    O75       1.12945      .   S
    N25    O75       0.45798      .   S
    Zr11   O76       1.12025      .   S
    N61    O76       0.44860      .   S
    Zr14   O77       1.12930      .   S
    N49    O77       0.45489      .   S
    Zr10   O78       1.12231      .   S
    N37    O78       0.45106      .   S
    Zr12   O79       1.12617      .   S
    N55    O79       0.45670      .   S
