# CIF file generated by openbabel 2.4.90, see http://openbabel.sf.net
data_I
_chemical_name_common ''
_cell_length_a 21.592
_cell_length_b 12.585
_cell_length_c 17.174
_cell_angle_alpha 89.958
_cell_angle_beta 95.414
_cell_angle_gamma 90.039
_space_group_name_H-M_alt 'P 1'
_space_group_name_Hall 'P 1'
loop_
    _symmetry_equiv_pos_as_xyz
    x,y,z
loop_
    _atom_site_label
    _atom_site_type_symbol
    _atom_site_fract_x
    _atom_site_fract_y
    _atom_site_fract_z
    _atom_site_occupancy
    C0      C    0.13534   0.26437   0.39733   1.000
    C1      C    0.63511   0.26416   0.39984   1.000
    C2      C    0.39469   0.25983   0.54035   1.000
    C3      C    0.89584   0.25947   0.54266   1.000
    C4      C    0.11473   0.76443   0.10024   1.000
    C5      C    0.61367   0.76429   0.10247   1.000
    C6      C    0.35466   0.75972   0.95696   1.000
    C7      C    0.85375   0.75945   0.95972   1.000
    C8      C    0.36486   0.73584   0.60013   1.000
    C9      C    0.86463   0.73562   0.60263   1.000
    C10     C    0.10413   0.74053   0.45700   1.000
    C11     C    0.60528   0.74017   0.45962   1.000
    C12     C    0.38630   0.23570   0.89749   1.000
    C13     C    0.88524   0.23557   0.89972   1.000
    C14     C    0.14622   0.24055   0.04025   1.000
    C15     C    0.64531   0.24028   0.04302   1.000
    C16     C    0.46607   0.36343   0.79407   1.000
    C17     C    0.96632   0.36349   0.79589   1.000
    C18     C    0.49763   0.32115   0.70728   1.000
    C19     C    0.99761   0.32126   0.70886   1.000
    C20     C    0.43855   0.41951   0.70254   1.000
    C21     C    0.93845   0.41943   0.70443   1.000
    C22     C    0.25833   0.05309   0.64303   1.000
    C23     C    0.75917   0.05199   0.64410   1.000
    C24     C    0.32430   0.01363   0.59654   1.000
    C25     C    0.82537   0.01376   0.59755   1.000
    C26     C    0.25643   0.32708   0.33193   1.000
    C27     C    0.75660   0.32755   0.33370   1.000
    C28     C    0.32159   0.37107   0.39559   1.000
    C29     C    0.82210   0.37145   0.39693   1.000
    C30     C    0.32784   0.25476   0.33953   1.000
    C31     C    0.82789   0.25493   0.34098   1.000
    C32     C    0.48540   0.01455   0.31800   1.000
    C33     C    0.98447   0.01577   0.31695   1.000
    C34     C    0.04912   0.09446   0.29340   1.000
    C35     C    0.54992   0.09364   0.29475   1.000
    C36     C    0.05997   0.99069   0.36378   1.000
    C37     C    0.56085   0.99003   0.36527   1.000
    C38     C    0.01731   0.37403   0.57496   1.000
    C39     C    0.51583   0.37382   0.57530   1.000
    C40     C    0.08838   0.30172   0.58688   1.000
    C41     C    0.58687   0.30166   0.58859   1.000
    C42     C    0.19132   0.61950   0.36118   1.000
    C43     C    0.69141   0.61846   0.36304   1.000
    C44     C    0.23613   0.50817   0.39583   1.000
    C45     C    0.73627   0.50738   0.39817   1.000
    C46     C    0.17812   0.49271   0.31611   1.000
    C47     C    0.67826   0.49133   0.31852   1.000
    C48     C    0.28421   0.86328   0.70346   1.000
    C49     C    0.78366   0.86385   0.70575   1.000
    C50     C    0.25289   0.82139   0.79060   1.000
    C51     C    0.75187   0.82134   0.79242   1.000
    C52     C    0.31204   0.91974   0.79472   1.000
    C53     C    0.81111   0.91955   0.79740   1.000
    C54     C    0.49176   0.55336   0.85586   1.000
    C55     C    0.98984   0.55137   0.85777   1.000
    C56     C    0.42549   0.51389   0.90182   1.000
    C57     C    0.92364   0.51339   0.90452   1.000
    C58     C    0.49233   0.82670   0.16678   1.000
    C59     C    0.99389   0.82861   0.16701   1.000
    C60     C    0.42689   0.86993   0.10326   1.000
    C61     C    0.92822   0.87218   0.10402   1.000
    C62     C    0.42124   0.75331   0.15931   1.000
    C63     C    0.92250   0.75619   0.16071   1.000
    C64     C    0.26553   0.51648   0.18200   1.000
    C65     C    0.76393   0.51552   0.18405   1.000
    C66     C    0.20076   0.59485   0.20523   1.000
    C67     C    0.69906   0.59388   0.20695   1.000
    C68     C    0.19010   0.49063   0.13526   1.000
    C69     C    0.68866   0.48999   0.13670   1.000
    C70     C    0.23328   0.87418   0.92348   1.000
    C71     C    0.73261   0.87390   0.92583   1.000
    C72     C    0.16211   0.80207   0.91113   1.000
    C73     C    0.66144   0.80180   0.91335   1.000
    C74     C    0.05900   0.11934   0.13668   1.000
    C75     C    0.55747   0.11892   0.13809   1.000
    C76     C    0.01432   0.00755   0.10253   1.000
    C77     C    0.51293   0.00727   0.10332   1.000
    C78     C    0.07256   0.99278   0.18206   1.000
    C79     C    0.57068   0.99221   0.18336   1.000
    C80     C    0.03366   0.63651   0.20400   1.000
    C81     C    0.53390   0.63656   0.20589   1.000
    C82     C    0.00236   0.67874   0.29109   1.000
    C83     C    0.50233   0.67884   0.29268   1.000
    C84     C    0.06152   0.58057   0.29552   1.000
    C85     C    0.56142   0.58047   0.29741   1.000
    C86     C    0.24081   0.94799   0.35585   1.000
    C87     C    0.74164   0.94690   0.35692   1.000
    C88     C    0.17461   0.98624   0.40241   1.000
    C89     C    0.67567   0.98635   0.40342   1.000
    C90     C    0.24336   0.67244   0.66619   1.000
    C91     C    0.74355   0.67292   0.66803   1.000
    C92     C    0.17786   0.62855   0.60302   1.000
    C93     C    0.67838   0.62893   0.60437   1.000
    C94     C    0.17207   0.74507   0.65897   1.000
    C95     C    0.67213   0.74525   0.66043   1.000
    C96     C    0.01551   0.98421   0.68301   1.000
    C97     C    0.51457   0.98544   0.68187   1.000
    C98     C    0.45005   0.90635   0.70522   1.000
    C99     C    0.95086   0.90553   0.70656   1.000
    C100    C    0.43912   0.00000   0.63470   1.000
    C101    C    0.94001   0.00000   0.63618   1.000
    C102    C    0.48414   0.62617   0.42465   1.000
    C103    C    0.98266   0.62597   0.42499   1.000
    C104    C    0.41310   0.69834   0.41137   1.000
    C105    C    0.91159   0.69829   0.41308   1.000
    C106    C    0.30855   0.38154   0.63693   1.000
    C107    C    0.80865   0.38049   0.63877   1.000
    C108    C    0.26370   0.49262   0.60180   1.000
    C109    C    0.76384   0.49183   0.60413   1.000
    C110    C    0.32171   0.50867   0.68145   1.000
    C111    C    0.82186   0.50728   0.68385   1.000
    C112    C    0.21631   0.13615   0.29422   1.000
    C113    C    0.71576   0.13672   0.29650   1.000
    C114    C    0.24810   0.17866   0.20755   1.000
    C115    C    0.74707   0.17861   0.20937   1.000
    C116    C    0.18886   0.08045   0.20257   1.000
    C117    C    0.68793   0.08026   0.20525   1.000
    C118    C    0.01013   0.44863   0.14219   1.000
    C119    C    0.50820   0.44662   0.14411   1.000
    C120    C    0.07633   0.48661   0.09544   1.000
    C121    C    0.57446   0.48610   0.09814   1.000
    C122    C    0.00608   0.17139   0.83290   1.000
    C123    C    0.50764   0.17329   0.83319   1.000
    C124    C    0.07175   0.12781   0.89595   1.000
    C125    C    0.57309   0.13006   0.89671   1.000
    C126    C    0.07748   0.24381   0.83925   1.000
    C127    C    0.57874   0.24668   0.84066   1.000
    C128    C    0.23604   0.48448   0.81592   1.000
    C129    C    0.73444   0.48351   0.81790   1.000
    C130    C    0.30091   0.40613   0.79302   1.000
    C131    C    0.79921   0.40514   0.79473   1.000
    C132    C    0.31130   0.51002   0.86320   1.000
    C133    C    0.80987   0.50936   0.86470   1.000
    C134    C    0.26736   0.12610   0.07413   1.000
    C135    C    0.76669   0.12582   0.07648   1.000
    C136    C    0.33854   0.19820   0.08661   1.000
    C137    C    0.83786   0.19793   0.08883   1.000
    C138    C    0.44250   0.88107   0.86180   1.000
    C139    C    0.94097   0.88065   0.86329   1.000
    C140    C    0.48705   0.99271   0.89664   1.000
    C141    C    0.98565   0.99245   0.89743   1.000
    C142    C    0.42930   0.00779   0.81660   1.000
    C143    C    0.92741   0.00722   0.81790   1.000
    C144    C    0.45472   0.34558   0.73194   1.000
    C145    C    0.95479   0.34558   0.73380   1.000
    C146    C    0.40667   0.26070   0.72229   1.000
    C147    C    0.90680   0.26059   0.72431   1.000
    C148    C    0.33827   0.14853   0.67262   1.000
    C149    C    0.83870   0.14817   0.67422   1.000
    C150    C    0.29812   0.08341   0.61450   1.000
    C151    C    0.79890   0.08302   0.61579   1.000
    C152    C    0.27442   0.14221   0.54189   1.000
    C153    C    0.77508   0.14231   0.54345   1.000
    C154    C    0.27436   0.23569   0.43683   1.000
    C155    C    0.77482   0.23635   0.43868   1.000
    C156    C    0.29576   0.30096   0.37231   1.000
    C157    C    0.79605   0.30141   0.37394   1.000
    C158    C    0.02795   0.05358   0.34079   1.000
    C159    C    0.52874   0.05265   0.34207   1.000
    C160    C    0.01487   0.12947   0.40345   1.000
    C161    C    0.51520   0.12857   0.40449   1.000
    C162    C    0.02655   0.25304   0.49020   1.000
    C163    C    0.52605   0.25255   0.49106   1.000
    C164    C    0.05390   0.33844   0.54337   1.000
    C165    C    0.55283   0.33822   0.54446   1.000
    C166    C    0.08446   0.42624   0.50232   1.000
    C167    C    0.58390   0.42604   0.50400   1.000
    C168    C    0.14273   0.50900   0.42750   1.000
    C169    C    0.64282   0.50844   0.42976   1.000
    C170    C    0.18951   0.53385   0.37198   1.000
    C171    C    0.68964   0.53290   0.37423   1.000
    C172    C    0.29572   0.84570   0.76561   1.000
    C173    C    0.79486   0.84577   0.76787   1.000
    C174    C    0.34373   0.76084   0.77537   1.000
    C175    C    0.84275   0.76073   0.77766   1.000
    C176    C    0.41197   0.64878   0.82558   1.000
    C177    C    0.91055   0.64794   0.82778   1.000
    C178    C    0.45183   0.58368   0.88404   1.000
    C179    C    0.95021   0.58254   0.88614   1.000
    C180    C    0.47519   0.64239   0.95681   1.000
    C181    C    0.97426   0.64189   0.95826   1.000
    C182    C    0.47469   0.73540   0.06190   1.000
    C183    C    0.97507   0.73658   0.06268   1.000
    C184    C    0.45306   0.80014   0.12646   1.000
    C185    C    0.95424   0.80225   0.12724   1.000
    C186    C    0.22199   0.55386   0.15800   1.000
    C187    C    0.72050   0.55306   0.15982   1.000
    C188    C    0.23504   0.62954   0.09511   1.000
    C189    C    0.73387   0.62898   0.09722   1.000
    C190    C    0.22360   0.75302   0.00811   1.000
    C191    C    0.72274   0.75275   0.01045   1.000
    C192    C    0.19651   0.83858   0.95483   1.000
    C193    C    0.69579   0.83835   0.95711   1.000
    C194    C    0.16593   0.92639   0.99572   1.000
    C195    C    0.66511   0.92616   0.99787   1.000
    C196    C    0.10761   0.00899   0.07045   1.000
    C197    C    0.60647   0.00869   0.07221   1.000
    C198    C    0.06094   0.03367   0.12609   1.000
    C199    C    0.55944   0.03328   0.12739   1.000
    C200    C    0.04518   0.65442   0.26614   1.000
    C201    C    0.54525   0.65440   0.26801   1.000
    C202    C    0.09317   0.73942   0.27565   1.000
    C203    C    0.59330   0.73929   0.27760   1.000
    C204    C    0.16128   0.85183   0.32574   1.000
    C205    C    0.66170   0.85146   0.32734   1.000
    C206    C    0.20108   0.91697   0.38416   1.000
    C207    C    0.70185   0.91658   0.38546   1.000
    C208    C    0.22490   0.85768   0.45651   1.000
    C209    C    0.72555   0.85777   0.45807   1.000
    C210    C    0.22515   0.76364   0.56128   1.000
    C211    C    0.72561   0.76430   0.56313   1.000
    C212    C    0.20391   0.69859   0.62601   1.000
    C213    C    0.70422   0.69904   0.62765   1.000
    C214    C    0.47123   0.94735   0.65790   1.000
    C215    C    0.97203   0.94641   0.65910   1.000
    C216    C    0.48477   0.87142   0.59548   1.000
    C217    C    0.98510   0.87052   0.59651   1.000
    C218    C    0.47392   0.74744   0.50890   1.000
    C219    C    0.97341   0.74695   0.50975   1.000
    C220    C    0.44714   0.66178   0.45550   1.000
    C221    C    0.94607   0.66156   0.45658   1.000
    C222    C    0.41607   0.57396   0.49597   1.000
    C223    C    0.91551   0.57376   0.49763   1.000
    C224    C    0.35715   0.49156   0.57021   1.000
    C225    C    0.85723   0.49100   0.57240   1.000
    C226    C    0.31033   0.46710   0.62574   1.000
    C227    C    0.81046   0.46614   0.62797   1.000
    C228    C    0.20511   0.15423   0.23210   1.000
    C229    C    0.70424   0.15430   0.23436   1.000
    C230    C    0.15722   0.23927   0.22231   1.000
    C231    C    0.65624   0.23916   0.22460   1.000
    C232    C    0.08942   0.35206   0.17219   1.000
    C233    C    0.58799   0.35121   0.17438   1.000
    C234    C    0.04976   0.41746   0.11383   1.000
    C235    C    0.54813   0.41631   0.11593   1.000
    C236    C    0.02571   0.35811   0.04170   1.000
    C237    C    0.52477   0.35759   0.04316   1.000
    C238    C    0.02490   0.26341   0.93728   1.000
    C239    C    0.52528   0.26458   0.93806   1.000
    C240    C    0.04573   0.19774   0.87273   1.000
    C241    C    0.54692   0.19985   0.87351   1.000
    C242    C    0.27946   0.44695   0.84014   1.000
    C243    C    0.77798   0.44613   0.84190   1.000
    C244    C    0.26610   0.37102   0.90274   1.000
    C245    C    0.76493   0.37045   0.90485   1.000
    C246    C    0.27723   0.24725   0.98950   1.000
    C247    C    0.77637   0.24697   0.99185   1.000
    C248    C    0.30419   0.16164   0.04285   1.000
    C249    C    0.80346   0.16141   0.04513   1.000
    C250    C    0.33487   0.07384   0.00209   1.000
    C251    C    0.83405   0.07361   0.00425   1.000
    C252    C    0.39350   0.99130   0.92775   1.000
    C253    C    0.89236   0.99101   0.92950   1.000
    C254    C    0.44053   0.96671   0.87257   1.000
    C255    C    0.93903   0.96632   0.87387   1.000
    C256    C    0.05695   0.20355   0.43497   1.000
    C257    C    0.55705   0.20254   0.43666   1.000
    C258    C    0.46157   0.13163   0.43638   1.000
    C259    C    0.96167   0.13213   0.43639   1.000
    C260    C    0.46891   0.21136   0.49206   1.000
    C261    C    0.96952   0.21165   0.49223   1.000
    C262    C    0.12625   0.40963   0.44813   1.000
    C263    C    0.62582   0.40924   0.45004   1.000
    C264    C    0.07488   0.52845   0.51550   1.000
    C265    C    0.57476   0.52830   0.51749   1.000
    C266    C    0.11225   0.58147   0.46687   1.000
    C267    C    0.61256   0.58108   0.46923   1.000
    C268    C    0.21581   0.20283   0.44355   1.000
    C269    C    0.71625   0.20349   0.44548   1.000
    C270    C    0.21556   0.14279   0.51148   1.000
    C271    C    0.71617   0.14303   0.51325   1.000
    C272    C    0.31266   0.19874   0.49768   1.000
    C273    C    0.81327   0.19915   0.49936   1.000
    C274    C    0.38288   0.21922   0.65285   1.000
    C275    C    0.88362   0.21846   0.65480   1.000
    C276    C    0.33471   0.14395   0.74935   1.000
    C277    C    0.83441   0.14435   0.75082   1.000
    C278    C    0.37878   0.21609   0.78097   1.000
    C279    C    0.87830   0.21665   0.78276   1.000
    C280    C    0.19299   0.70334   0.06315   1.000
    C281    C    0.69200   0.70306   0.06532   1.000
    C282    C    0.28837   0.63244   0.06253   1.000
    C283    C    0.78728   0.63172   0.06479   1.000
    C284    C    0.28067   0.71188   0.00656   1.000
    C285    C    0.77978   0.71137   0.00897   1.000
    C286    C    0.12408   0.90971   0.04984   1.000
    C287    C    0.62301   0.90943   0.05168   1.000
    C288    C    0.17555   0.02861   0.98251   1.000
    C289    C    0.67483   0.02840   0.98481   1.000
    C290    C    0.13814   0.08153   0.03106   1.000
    C291    C    0.63720   0.08128   0.03313   1.000
    C292    C    0.03356   0.70364   0.05553   1.000
    C293    C    0.53332   0.70263   0.05571   1.000
    C294    C    0.03329   0.64280   0.98799   1.000
    C295    C    0.53392   0.64287   0.98773   1.000
    C296    C    0.43669   0.69874   0.00000   1.000
    C297    C    0.93633   0.69897   0.00000   1.000
    C298    C    0.36710   0.71910   0.84494   1.000
    C299    C    0.86584   0.71852   0.84721   1.000
    C300    C    0.41602   0.64460   0.74894   1.000
    C301    C    0.91483   0.64408   0.75119   1.000
    C302    C    0.37206   0.71668   0.71696   1.000
    C303    C    0.87117   0.71665   0.71925   1.000
    C304    C    0.44292   0.79746   0.56330   1.000
    C305    C    0.94302   0.79644   0.56499   1.000
    C306    C    0.03830   0.86787   0.56356   1.000
    C307    C    0.53839   0.86837   0.56359   1.000
    C308    C    0.03045   0.78834   0.50772   1.000
    C309    C    0.53106   0.78864   0.50791   1.000
    C310    C    0.37415   0.59076   0.54993   1.000
    C311    C    0.87372   0.59037   0.55183   1.000
    C312    C    0.42521   0.47170   0.48247   1.000
    C313    C    0.92508   0.47155   0.48444   1.000
    C314    C    0.38741   0.41891   0.53073   1.000
    C315    C    0.88772   0.41853   0.53308   1.000
    C316    C    0.28372   0.79650   0.55448   1.000
    C317    C    0.78416   0.79716   0.55641   1.000
    C318    C    0.28381   0.85695   0.48670   1.000
    C319    C    0.78441   0.85720   0.48847   1.000
    C320    C    0.18671   0.80085   0.50060   1.000
    C321    C    0.68732   0.80125   0.50228   1.000
    C322    C    0.11635   0.78154   0.34516   1.000
    C323    C    0.61709   0.78077   0.34711   1.000
    C324    C    0.16556   0.85564   0.24913   1.000
    C325    C    0.66525   0.85604   0.25060   1.000
    C326    C    0.12168   0.78335   0.21719   1.000
    C327    C    0.62118   0.78390   0.21898   1.000
    C328    C    0.30797   0.29693   0.93464   1.000
    C329    C    0.80698   0.29666   0.93680   1.000
    C330    C    0.21269   0.36828   0.93518   1.000
    C331    C    0.71160   0.36756   0.93744   1.000
    C332    C    0.22020   0.28863   0.99100   1.000
    C333    C    0.71930   0.28812   0.99340   1.000
    C334    C    0.37696   0.09057   0.94828   1.000
    C335    C    0.87589   0.09029   0.95012   1.000
    C336    C    0.32515   0.97160   0.01515   1.000
    C337    C    0.82442   0.97139   0.01746   1.000
    C338    C    0.36277   0.91872   0.96683   1.000
    C339    C    0.86184   0.91847   0.96891   1.000
    C340    C    0.46666   0.29736   0.94425   1.000
    C341    C    0.96641   0.29635   0.94443   1.000
    C342    C    0.46605   0.35712   0.01223   1.000
    C343    C    0.96668   0.35719   0.01197   1.000
    C344    C    0.06364   0.30103   0.99752   1.000
    C345    C    0.56328   0.30125   0.99931   1.000
    C346    C    0.13413   0.28147   0.15276   1.000
    C347    C    0.63286   0.28090   0.15503   1.000
    C348    C    0.08513   0.35591   0.24877   1.000
    C349    C    0.58394   0.35540   0.25103   1.000
    C350    C    0.12880   0.28335   0.28072   1.000
    C351    C    0.62790   0.28331   0.28301   1.000
    O352    O    0.45569   0.71707   0.03095   1.000
    O353    O    0.45594   0.67057   0.97840   1.000
    O354    O    0.39568   0.72923   0.97848   1.000
    O355    O    0.95570   0.71777   0.03134   1.000
    O356    O    0.95529   0.67043   0.97913   1.000
    O357    O    0.89504   0.72921   0.97986   1.000
    O358    O    0.33001   0.02272   0.00862   1.000
    O359    O    0.31953   0.11774   0.02247   1.000
    O360    O    0.35591   0.08220   0.97518   1.000
    O361    O    0.82924   0.02250   0.01085   1.000
    O362    O    0.81875   0.11751   0.02469   1.000
    O363    O    0.85497   0.08195   0.97718   1.000
    O364    O    0.25213   0.73245   0.00733   1.000
    O365    O    0.28452   0.67216   0.03454   1.000
    O366    O    0.31767   0.73580   0.98176   1.000
    O367    O    0.20830   0.72818   0.03563   1.000
    O368    O    0.21005   0.79580   0.98147   1.000
    O369    O    0.75126   0.73206   0.00971   1.000
    O370    O    0.78353   0.67154   0.03688   1.000
    O371    O    0.81676   0.73541   0.98434   1.000
    O372    O    0.70737   0.72791   0.03789   1.000
    O373    O    0.70926   0.79555   0.98378   1.000
    O374    O    0.99620   0.35765   0.02684   1.000
    O375    O    0.96655   0.32677   0.97820   1.000
    O376    O    0.49541   0.35735   0.02769   1.000
    O377    O    0.46635   0.32724   0.97824   1.000
    O378    O    0.34396   0.94516   0.99099   1.000
    O379    O    0.84313   0.94493   0.99319   1.000
    O380    O    0.14218   0.16104   0.03565   1.000
    O381    O    0.12288   0.04526   0.05075   1.000
    O382    O    0.15684   0.05507   0.00678   1.000
    O383    O    0.64126   0.16078   0.03807   1.000
    O384    O    0.62184   0.04499   0.05267   1.000
    O385    O    0.65602   0.05484   0.00897   1.000
    O386    O    0.14018   0.26101   0.09651   1.000
    O387    O    0.18321   0.26459   0.01562   1.000
    O388    O    0.10493   0.27079   0.01888   1.000
    O389    O    0.03774   0.38778   0.07777   1.000
    O390    O    0.04468   0.32957   0.01961   1.000
    O391    O    0.28578   0.14387   0.05849   1.000
    O392    O    0.32136   0.17992   0.06473   1.000
    O393    O    0.29071   0.20445   0.01618   1.000
    O394    O    0.63908   0.26059   0.09902   1.000
    O395    O    0.68230   0.26420   0.01821   1.000
    O396    O    0.60429   0.27076   0.02116   1.000
    O397    O    0.53645   0.38695   0.07955   1.000
    O398    O    0.54403   0.32942   0.02124   1.000
    O399    O    0.78508   0.14362   0.06080   1.000
    O400    O    0.82066   0.17967   0.06698   1.000
    O401    O    0.78992   0.20419   0.01849   1.000
    O402    O    0.11585   0.95935   0.06014   1.000
    O403    O    0.11941   0.83707   0.07504   1.000
    O404    O    0.14500   0.91805   0.02278   1.000
    O405    O    0.61474   0.95906   0.06194   1.000
    O406    O    0.61834   0.83686   0.07708   1.000
    O407    O    0.64406   0.91779   0.02478   1.000
    O408    O    0.00432   0.72011   0.05911   1.000
    O409    O    0.07415   0.73403   0.07788   1.000
    O410    O    0.03343   0.67322   0.02176   1.000
    O411    O    0.50400   0.71902   0.05881   1.000
    O412    O    0.57349   0.73346   0.07909   1.000
    O413    O    0.53362   0.67275   0.02172   1.000
    O414    O    0.46387   0.76777   0.09418   1.000
    O415    O    0.26171   0.63099   0.07882   1.000
    O416    O    0.96466   0.76941   0.09496   1.000
    O417    O    0.21402   0.66644   0.07913   1.000
    O418    O    0.15386   0.73388   0.08170   1.000
    O419    O    0.76058   0.63035   0.08100   1.000
    O420    O    0.71293   0.66602   0.08127   1.000
    O421    O    0.65283   0.73368   0.08389   1.000
    O422    O    0.08428   0.02133   0.09827   1.000
    O423    O    0.58296   0.02099   0.09980   1.000
    O424    O    0.22851   0.59170   0.12656   1.000
    O425    O    0.06304   0.45203   0.10463   1.000
    O426    O    0.72719   0.59102   0.12852   1.000
    O427    O    0.56130   0.45121   0.10704   1.000
    O428    O    0.11821   0.77389   0.15871   1.000
    O429    O    0.61743   0.77409   0.16073   1.000
    O430    O    0.03763   0.02061   0.11431   1.000
    O431    O    0.43997   0.83504   0.11486   1.000
    O432    O    0.53618   0.02028   0.11535   1.000
    O433    O    0.94123   0.83721   0.11563   1.000
    O434    O    0.02994   0.43304   0.12801   1.000
    O435    O    0.06959   0.38476   0.14301   1.000
    O436    O    0.52816   0.43147   0.13002   1.000
    O437    O    0.56806   0.38376   0.14516   1.000
    O438    O    0.05997   0.07651   0.13138   1.000
    O439    O    0.06675   0.01323   0.15407   1.000
    O440    O    0.43715   0.77673   0.14289   1.000
    O441    O    0.47269   0.81342   0.14662   1.000
    O442    O    0.93837   0.77922   0.14397   1.000
    O443    O    0.97407   0.81543   0.14713   1.000
    O444    O    0.55845   0.07610   0.13274   1.000
    O445    O    0.56506   0.01274   0.15537   1.000
    O446    O    0.20604   0.52225   0.14663   1.000
    O447    O    0.70458   0.52152   0.14826   1.000
    O448    O    0.11178   0.31676   0.16248   1.000
    O449    O    0.14567   0.26037   0.18753   1.000
    O450    O    0.61043   0.31605   0.16470   1.000
    O451    O    0.64455   0.26003   0.18981   1.000
    O452    O    0.24376   0.53517   0.17000   1.000
    O453    O    0.21137   0.57435   0.18161   1.000
    O454    O    0.74222   0.53429   0.17193   1.000
    O455    O    0.70978   0.57347   0.18338   1.000
    O456    O    0.08728   0.35398   0.21048   1.000
    O457    O    0.58597   0.35330   0.21271   1.000
    O458    O    0.19699   0.11734   0.21734   1.000
    O459    O    0.03942   0.64547   0.23507   1.000
    O460    O    0.69608   0.11728   0.21981   1.000
    O461    O    0.53957   0.64548   0.23695   1.000
    O462    O    0.22661   0.16644   0.21983   1.000
    O463    O    0.72566   0.16646   0.22186   1.000
    O464    O    0.14362   0.81950   0.23316   1.000
    O465    O    0.10743   0.76138   0.24642   1.000
    O466    O    0.64322   0.81997   0.23479   1.000
    O467    O    0.60724   0.76159   0.24829   1.000
    O468    O    0.18116   0.19675   0.22720   1.000
    O469    O    0.14301   0.26131   0.25151   1.000
    O470    O    0.68024   0.19673   0.22948   1.000
    O471    O    0.64207   0.26123   0.25380   1.000
    O472    O    0.21071   0.14519   0.26316   1.000
    O473    O    0.71000   0.14551   0.26543   1.000
    O474    O    0.10697   0.31963   0.26474   1.000
    O475    O    0.16342   0.85373   0.28743   1.000
    O476    O    0.66348   0.85375   0.28897   1.000
    O477    O    0.60592   0.31935   0.26702   1.000
    O478    O    0.06918   0.69692   0.27089   1.000
    O479    O    0.02377   0.66658   0.27862   1.000
    O480    O    0.05335   0.61750   0.28083   1.000
    O481    O    0.56927   0.69685   0.27280   1.000
    O482    O    0.52379   0.66662   0.28035   1.000
    O483    O    0.55333   0.61744   0.28271   1.000
    O484    O    0.10476   0.76048   0.31040   1.000
    O485    O    0.60520   0.76003   0.31235   1.000
    O486    O    0.13207   0.27386   0.33903   1.000
    O487    O    0.63150   0.27373   0.34142   1.000
    O488    O    0.03854   0.07402   0.31709   1.000
    O489    O    0.53933   0.07315   0.31841   1.000
    O490    O    0.18381   0.51328   0.34404   1.000
    O491    O    0.00621   0.03468   0.32887   1.000
    O492    O    0.50707   0.03360   0.33003   1.000
    O493    O    0.68395   0.51211   0.34637   1.000
    O494    O    0.13881   0.81668   0.33545   1.000
    O495    O    0.18118   0.88440   0.35495   1.000
    O496    O    0.63939   0.81612   0.33722   1.000
    O497    O    0.68177   0.88402   0.35640   1.000
    O498    O    0.27609   0.31402   0.35212   1.000
    O499    O    0.77632   0.31448   0.35382   1.000
    O500    O    0.31180   0.27786   0.35592   1.000
    O501    O    0.04396   0.02213   0.35228   1.000
    O502    O    0.02141   0.09152   0.37212   1.000
    O503    O    0.81197   0.27817   0.35746   1.000
    O504    O    0.54480   0.02134   0.35367   1.000
    O505    O    0.52197   0.09061   0.37328   1.000
    O506    O    0.11024   0.76103   0.40108   1.000
    O507    O    0.61119   0.76047   0.40336   1.000
    O508    O    0.22095   0.93248   0.37000   1.000
    O509    O    0.72175   0.93174   0.37119   1.000
    O510    O    0.19041   0.57668   0.36658   1.000
    O511    O    0.69053   0.57568   0.36863   1.000
    O512    O    0.21282   0.52101   0.38390   1.000
    O513    O    0.16612   0.52142   0.39974   1.000
    O514    O    0.30867   0.33602   0.38395   1.000
    O515    O    0.28506   0.26833   0.40457   1.000
    O516    O    0.80907   0.33643   0.38543   1.000
    O517    O    0.78544   0.26888   0.40631   1.000
    O518    O    0.71296   0.52014   0.38620   1.000
    O519    O    0.66623   0.52067   0.40199   1.000
    O520    O    0.18785   0.95161   0.39328   1.000
    O521    O    0.21299   0.88732   0.42033   1.000
    O522    O    0.68876   0.95146   0.39444   1.000
    O523    O    0.71370   0.88717   0.42176   1.000
    O524    O    0.09615   0.23396   0.41615   1.000
    O525    O    0.17558   0.23360   0.42044   1.000
    O526    O    0.13080   0.33700   0.42273   1.000
    O527    O    0.59608   0.23335   0.41825   1.000
    O528    O    0.67568   0.23382   0.42266   1.000
    O529    O    0.63046   0.33670   0.42494   1.000
    O530    O    0.03591   0.16651   0.41921   1.000
    O531    O    0.98827   0.13080   0.41992   1.000
    O532    O    0.48839   0.13010   0.42044   1.000
    O533    O    0.53612   0.16555   0.42057   1.000
    O534    O    0.43012   0.68006   0.43344   1.000
    O535    O    0.92883   0.67992   0.43483   1.000
    O536    O    0.46564   0.64398   0.44007   1.000
    O537    O    0.96436   0.64376   0.44078   1.000
    O538    O    0.13449   0.45931   0.43781   1.000
    O539    O    0.12749   0.54523   0.44718   1.000
    O540    O    0.63432   0.45884   0.43990   1.000
    O541    O    0.62769   0.54476   0.44949   1.000
    O542    O    0.04175   0.22830   0.46259   1.000
    O543    O    0.46524   0.17150   0.46422   1.000
    O544    O    0.96559   0.17189   0.46431   1.000
    O545    O    0.54155   0.22755   0.46386   1.000
    O546    O    0.24509   0.21926   0.44019   1.000
    O547    O    0.29351   0.21722   0.46725   1.000
    O548    O    0.74554   0.21992   0.44208   1.000
    O549    O    0.79404   0.21775   0.46902   1.000
    O550    O    0.21569   0.17281   0.47752   1.000
    O551    O    0.71621   0.17326   0.47937   1.000
    O552    O    0.10535   0.41794   0.47523   1.000
    O553    O    0.60486   0.41764   0.47702   1.000
    O554    O    0.43160   0.61787   0.47573   1.000
    O555    O    0.46053   0.70461   0.48220   1.000
    O556    O    0.25435   0.85731   0.47160   1.000
    O557    O    0.20580   0.82926   0.47856   1.000
    O558    O    0.93079   0.61766   0.47711   1.000
    O559    O    0.95974   0.70426   0.48317   1.000
    O560    O    0.10819   0.66100   0.46193   1.000
    O561    O    0.14542   0.77069   0.47880   1.000
    O562    O    0.06729   0.76443   0.48236   1.000
    O563    O    0.75498   0.85749   0.47327   1.000
    O564    O    0.70643   0.82951   0.48018   1.000
    O565    O    0.60892   0.66063   0.46442   1.000
    O566    O    0.64630   0.77071   0.48095   1.000
    O567    O    0.56817   0.76440   0.48376   1.000
    O568    O    0.09357   0.55496   0.49118   1.000
    O569    O    0.59366   0.55469   0.49336   1.000
    O570    O    0.42064   0.52283   0.48922   1.000
    O571    O    0.40631   0.44530   0.50660   1.000
    O572    O    0.92029   0.52266   0.49103   1.000
    O573    O    0.90640   0.44504   0.50876   1.000
    O574    O    0.28376   0.82673   0.52059   1.000
    O575    O    0.78429   0.82718   0.52244   1.000
    O576    O    0.99804   0.23235   0.49121   1.000
    O577    O    0.04023   0.29574   0.51679   1.000
    O578    O    0.49748   0.23196   0.49156   1.000
    O579    O    0.53944   0.29539   0.51776   1.000
    O580    O    0.43180   0.23560   0.51620   1.000
    O581    O    0.93268   0.23556   0.51745   1.000
    O582    O    0.39511   0.58236   0.52295   1.000
    O583    O    0.89461   0.58206   0.52473   1.000
    O584    O    0.35367   0.22928   0.51902   1.000
    O585    O    0.29354   0.17048   0.51979   1.000
    O586    O    0.85455   0.22931   0.52101   1.000
    O587    O    0.79417   0.17073   0.52141   1.000
    O588    O    0.20593   0.78224   0.53094   1.000
    O589    O    0.70646   0.78278   0.53270   1.000
    O590    O    0.07967   0.47734   0.50891   1.000
    O591    O    0.06918   0.38234   0.52284   1.000
    O592    O    0.57933   0.47717   0.51075   1.000
    O593    O    0.56836   0.38213   0.52423   1.000
    O594    O    0.00193   0.76765   0.50873   1.000
    O595    O    0.03438   0.82811   0.53564   1.000
    O596    O    0.50249   0.76804   0.50840   1.000
    O597    O    0.53473   0.82850   0.53575   1.000
    O598    O    0.45842   0.77245   0.53610   1.000
    O599    O    0.95822   0.77170   0.53737   1.000
    O600    O    0.24499   0.14250   0.52668   1.000
    O601    O    0.74562   0.14267   0.52835   1.000
    O602    O    0.39105   0.33937   0.53554   1.000
    O603    O    0.37228   0.45523   0.55047   1.000
    O604    O    0.89178   0.33900   0.53787   1.000
    O605    O    0.87248   0.45477   0.55274   1.000
    O606    O    0.38878   0.23952   0.59660   1.000
    O607    O    0.28627   0.11281   0.57819   1.000
    O608    O    0.88973   0.23896   0.59873   1.000
    O609    O    0.03560   0.35624   0.55917   1.000
    O610    O    0.07114   0.32008   0.56512   1.000
    O611    O    0.78699   0.11267   0.57962   1.000
    O612    O    0.53433   0.35602   0.55988   1.000
    O613    O    0.56985   0.31994   0.56652   1.000
    O614    O    0.36565   0.54116   0.56007   1.000
    O615    O    0.36951   0.66330   0.57503   1.000
    O616    O    0.86548   0.54068   0.56212   1.000
    O617    O    0.86918   0.66299   0.57723   1.000
    O618    O    0.25443   0.78007   0.55788   1.000
    O619    O    0.32429   0.76617   0.57731   1.000
    O620    O    0.75489   0.78073   0.55977   1.000
    O621    O    0.82440   0.76639   0.57952   1.000
    O622    O    0.21453   0.73111   0.59364   1.000
    O623    O    0.71491   0.73167   0.59539   1.000
    O624    O    0.46385   0.83444   0.57939   1.000
    O625    O    0.40389   0.76665   0.58171   1.000
    O626    O    0.01170   0.86919   0.58004   1.000
    O627    O    0.51158   0.86990   0.57954   1.000
    O628    O    0.96406   0.83348   0.58075   1.000
    O629    O    0.90383   0.76603   0.58381   1.000
    O630    O    0.33374   0.47933   0.59798   1.000
    O631    O    0.83385   0.47857   0.60019   1.000
    O632    O    0.47800   0.90939   0.62669   1.000
    O633    O    0.97856   0.90847   0.62780   1.000
    O634    O    0.31121   0.04852   0.60552   1.000
    O635    O    0.81213   0.04839   0.60667   1.000
    O636    O    0.36846   0.72626   0.65854   1.000
    O637    O    0.28701   0.47986   0.61377   1.000
    O638    O    0.86790   0.72614   0.66094   1.000
    O639    O    0.19089   0.66357   0.61451   1.000
    O640    O    0.78715   0.47899   0.61605   1.000
    O641    O    0.69130   0.66399   0.61601   1.000
    O642    O    0.27823   0.06825   0.62877   1.000
    O643    O    0.31820   0.11597   0.64356   1.000
    O644    O    0.77903   0.06751   0.62994   1.000
    O645    O    0.81880   0.11559   0.64501   1.000
    O646    O    0.30944   0.42432   0.63133   1.000
    O647    O    0.31602   0.48788   0.65359   1.000
    O648    O    0.18799   0.72183   0.64249   1.000
    O649    O    0.22364   0.68551   0.64610   1.000
    O650    O    0.68817   0.72215   0.64404   1.000
    O651    O    0.72388   0.68598   0.64784   1.000
    O652    O    0.80956   0.42332   0.63337   1.000
    O653    O    0.81616   0.48671   0.65591   1.000
    O654    O    0.45518   0.97367   0.64630   1.000
    O655    O    0.95602   0.97321   0.64764   1.000
    O656    O    0.36058   0.18387   0.66273   1.000
    O657    O    0.39477   0.23996   0.68757   1.000
    O658    O    0.86116   0.18331   0.66451   1.000
    O659    O    0.89521   0.23952   0.68956   1.000
    O660    O    0.49290   0.96639   0.66988   1.000
    O661    O    0.46064   0.92685   0.68156   1.000
    O662    O    0.99377   0.96531   0.67105   1.000
    O663    O    0.96144   0.92597   0.68283   1.000
    O664    O    0.33649   0.14624   0.71098   1.000
    O665    O    0.83656   0.14626   0.71252   1.000
    O666    O    0.44663   0.38255   0.71724   1.000
    O667    O    0.28997   0.85449   0.73454   1.000
    O668    O    0.94662   0.38250   0.71912   1.000
    O669    O    0.78926   0.85481   0.73681   1.000
    O670    O    0.47618   0.33337   0.71961   1.000
    O671    O    0.97620   0.33342   0.72133   1.000
    O672    O    0.39404   0.68064   0.73295   1.000
    O673    O    0.35790   0.73876   0.74616   1.000
    O674    O    0.89300   0.68037   0.73522   1.000
    O675    O    0.85696   0.73869   0.74845   1.000
    O676    O    0.43069   0.30314   0.72711   1.000
    O677    O    0.39272   0.23840   0.75163   1.000
    O678    O    0.93080   0.30308   0.72906   1.000
    O679    O    0.89255   0.23861   0.75353   1.000
    O680    O    0.46040   0.35450   0.76301   1.000
    O681    O    0.96055   0.35453   0.76484   1.000
    O682    O    0.41400   0.64669   0.78726   1.000
    O683    O    0.35675   0.18002   0.76516   1.000
    O684    O    0.85635   0.18050   0.76679   1.000
    O685    O    0.91269   0.64601   0.78948   1.000
    O686    O    0.31973   0.80327   0.77049   1.000
    O687    O    0.27431   0.83354   0.77811   1.000
    O688    O    0.30388   0.88272   0.78016   1.000
    O689    O    0.81881   0.80325   0.77277   1.000
    O690    O    0.77337   0.83356   0.78014   1.000
    O691    O    0.80299   0.88266   0.78263   1.000
    O692    O    0.35542   0.73997   0.81015   1.000
    O693    O    0.85430   0.73963   0.81244   1.000
    O694    O    0.38254   0.22590   0.83923   1.000
    O695    O    0.88177   0.22611   0.84124   1.000
    O696    O    0.29018   0.42654   0.81658   1.000
    O697    O    0.78859   0.42564   0.81831   1.000
    O698    O    0.25775   0.46571   0.82803   1.000
    O699    O    0.43491   0.98725   0.84458   1.000
    O700    O    0.93322   0.98677   0.84588   1.000
    O701    O    0.75621   0.46482   0.82990   1.000
    O702    O    0.38954   0.68394   0.83526   1.000
    O703    O    0.43190   0.61623   0.85481   1.000
    O704    O    0.88819   0.68323   0.83749   1.000
    O705    O    0.93038   0.61524   0.85696   1.000
    O706    O    0.02590   0.18456   0.85281   1.000
    O707    O    0.52728   0.18657   0.85335   1.000
    O708    O    0.06160   0.22077   0.85599   1.000
    O709    O    0.29538   0.47848   0.85167   1.000
    O710    O    0.27278   0.40898   0.87144   1.000
    O711    O    0.56283   0.22326   0.85708   1.000
    O712    O    0.79392   0.47775   0.85330   1.000
    O713    O    0.77145   0.40829   0.87338   1.000
    O714    O    0.36088   0.73941   0.90095   1.000
    O715    O    0.85979   0.73898   0.90346   1.000
    O716    O    0.47180   0.56852   0.86995   1.000
    O717    O    0.97002   0.56695   0.87196   1.000
    O718    O    0.44152   0.92389   0.86718   1.000
    O719    O    0.94000   0.92349   0.86858   1.000
    O720    O    0.46379   0.97971   0.88460   1.000
    O721    O    0.41702   0.97900   0.90016   1.000
    O722    O    0.05874   0.16278   0.88434   1.000
    O723    O    0.03531   0.23058   0.90500   1.000
    O724    O    0.56000   0.16495   0.88511   1.000
    O725    O    0.53610   0.23221   0.90578   1.000
    O726    O    0.96234   0.97938   0.88565   1.000
    O727    O    0.91569   0.97866   0.90168   1.000
    O728    O    0.43866   0.54878   0.89293   1.000
    O729    O    0.46351   0.61304   0.92042   1.000
    O730    O    0.93693   0.54796   0.89533   1.000
    O731    O    0.96224   0.61221   0.92220   1.000
    O732    O    0.34714   0.26632   0.91606   1.000
    O733    O    0.42648   0.26653   0.92087   1.000
    O734    O    0.38163   0.16313   0.92288   1.000
    O735    O    0.84611   0.26611   0.91826   1.000
    O736    O    0.92582   0.26596   0.92207   1.000
    O737    O    0.88056   0.16293   0.92492   1.000
    O738    O    0.28703   0.33398   0.91869   1.000
    O739    O    0.23939   0.36965   0.91896   1.000
    O740    O    0.78595   0.33355   0.92082   1.000
    O741    O    0.73826   0.36900   0.92115   1.000
    O742    O    0.17931   0.82032   0.93298   1.000
    O743    O    0.67861   0.82008   0.93523   1.000
    O744    O    0.21490   0.85638   0.93915   1.000
    O745    O    0.71420   0.85613   0.94147   1.000
    O746    O    0.38523   0.04093   0.93801   1.000
    O747    O    0.37814   0.95501   0.94729   1.000
    O748    O    0.88412   0.04065   0.93981   1.000
    O749    O    0.87710   0.95474   0.94920   1.000
    O750    O    0.29260   0.27209   0.96207   1.000
    O751    O    0.21644   0.32846   0.96309   1.000
    O752    O    0.79167   0.27181   0.96432   1.000
    O753    O    0.99565   0.27988   0.94085   1.000
    O754    O    0.04427   0.28222   0.96740   1.000
    O755    O    0.71545   0.32784   0.96542   1.000
    O756    O    0.49597   0.28097   0.94115   1.000
    O757    O    0.54428   0.28291   0.96869   1.000
    O758    O    0.18122   0.88249   0.97527   1.000
    O759    O    0.50456   0.64263   0.97227   1.000
    O760    O    0.35872   0.83922   0.96190   1.000
    O761    O    0.68045   0.88226   0.97749   1.000
    O762    O    0.00377   0.64234   0.97312   1.000
    O763    O    0.85779   0.83896   0.96432   1.000
    O764    O    0.17074   0.97750   0.98912   1.000
    O765    O    0.66997   0.97728   0.99134   1.000
    O766    O    0.24871   0.26794   0.99025   1.000
    O767    O    0.74784   0.26755   0.99262   1.000
loop_
    _geom_bond_atom_site_label_1
    _geom_bond_atom_site_label_2
    _geom_bond_distance
    _geom_bond_site_symmetry_2
    _ccdc_geom_bond_type
    C296   O352      0.68043      .   S
    C182   O352      0.68043      .   S
    C296   O353      0.68232  1_554   S
    C180   O353      0.68232      .   S
    C296   O354      1.00323  1_554   S
    C6     O354      1.00323      .   S
    C297   O355      0.69155      .   S
    C183   O355      0.69155      .   S
    C297   O356      0.67322  1_554   S
    C181   O356      0.67322      .   S
    C297   O357      1.00070  1_554   S
    C7     O357      1.00070      .   S
    C250   O358      0.66294      .   S
    C336   O358      0.66294  1_565   S
    C250   O359      0.74827      .   S
    C248   O359      0.74827      .   S
    C250   O360      0.68598  1_554   S
    C334   O360      0.68598      .   S
    C251   O361      0.66287      .   S
    C337   O361      0.66287  1_565   S
    C251   O362      0.74829      .   S
    C249   O362      0.74829      .   S
    C251   O363      0.68600  1_554   S
    C335   O363      0.68600      .   S
    C284   O364      0.66979      .   S
    C190   O364      0.66979      .   S
    C284   O365      0.69278      .   S
    C282   O365      0.69278      .   S
    C284   O366      0.98684  1_554   S
    C6     O366      0.98684      .   S
    C190   O367      0.67782      .   S
    C280   O367      0.67782      .   S
    C190   O368      0.74787  1_554   S
    C192   O368      0.74787      .   S
    C285   O369      0.66992      .   S
    C191   O369      0.66992      .   S
    C285   O370      0.69273      .   S
    C283   O370      0.69273      .   S
    C285   O371      0.98559  1_554   S
    C7     O371      0.98559      .   S
    C191   O372      0.67755      .   S
    C281   O372      0.67755      .   S
    C191   O373      0.74790  1_554   S
    C193   O373      0.74790      .   S
    C343   O374      0.66384      .   S
    C236   O374      0.66384  1_455   S
    C343   O375      0.69494  1_554   S
    C341   O375      0.69494      .   S
    C342   O376      0.66389      .   S
    C237   O376      0.66389      .   S
    C342   O377      0.69517  1_554   S
    C340   O377      0.69517      .   S
    C336   O378      0.69288  1_554   S
    C338   O378      0.69288      .   S
    C337   O379      0.69281  1_554   S
    C339   O379      0.69281      .   S
    C290   O380      1.00692      .   S
    C14    O380      1.00692      .   S
    C290   O381      0.67226      .   S
    C196   O381      0.67226      .   S
    C290   O382      0.69281      .   S
    C288   O382      0.69281  1_556   S
    C291   O383      1.00720      .   S
    C15    O383      1.00720      .   S
    C291   O384      0.67221      .   S
    C197   O384      0.67221      .   S
    C291   O385      0.69288      .   S
    C289   O385      0.69288  1_556   S
    C14    O386      1.02028      .   S
    C346   O386      1.02028      .   S
    C14    O387      0.98558      .   S
    C332   O387      0.98558  1_556   S
    C14    O388      1.00641      .   S
    C344   O388      1.00641  1_556   S
    C236   O389      0.74856      .   S
    C234   O389      0.74856      .   S
    C236   O390      0.68580      .   S
    C344   O390      0.68580  1_556   S
    C248   O391      0.54790      .   S
    C134   O391      0.54790      .   S
    C248   O392      0.55256      .   S
    C136   O392      0.55256      .   S
    C248   O393      0.74795      .   S
    C246   O393      0.74795  1_556   S
    C15    O394      1.01652      .   S
    C347   O394      1.01652      .   S
    C15    O395      0.98692      .   S
    C333   O395      0.98692  1_556   S
    C15    O396      1.00488      .   S
    C345   O396      1.00488  1_556   S
    C237   O397      0.74903      .   S
    C235   O397      0.74903      .   S
    C237   O398      0.68576      .   S
    C345   O398      0.68576  1_556   S
    C249   O399      0.54787      .   S
    C135   O399      0.54787      .   S
    C249   O400      0.55252      .   S
    C137   O400      0.55252      .   S
    C249   O401      0.74787      .   S
    C247   O401      0.74787  1_556   S
    C286   O402      0.67787      .   S
    C196   O402      0.67787  1_545   S
    C286   O403      1.02017      .   S
    C4     O403      1.02017      .   S
    C286   O404      0.68596      .   S
    C194   O404      0.68596  1_556   S
    C287   O405      0.67777      .   S
    C197   O405      0.67777  1_545   S
    C287   O406      1.02081      .   S
    C5     O406      1.02081      .   S
    C287   O407      0.68599      .   S
    C195   O407      0.68599  1_556   S
    C292   O408      0.67301      .   S
    C183   O408      0.67301  1_655   S
    C292   O409      0.99896      .   S
    C4     O409      0.99896      .   S
    C292   O410      0.69493      .   S
    C294   O410      0.69493  1_556   S
    C293   O411      0.67269      .   S
    C182   O411      0.67269      .   S
    C293   O412      0.99916      .   S
    C5     O412      0.99916      .   S
    C293   O413      0.69517      .   S
    C295   O413      0.69517  1_556   S
    C182   O414      0.74344      .   S
    C184   O414      0.74344      .   S
    C282   O415      0.66371      .   S
    C188   O415      0.66371      .   S
    C183   O416      0.74342      .   S
    C185   O416      0.74342      .   S
    C280   O417      0.68819      .   S
    C188   O417      0.68819      .   S
    C280   O418      1.00717      .   S
    C4     O418      1.00717      .   S
    C283   O419      0.66377      .   S
    C189   O419      0.66377      .   S
    C281   O420      0.68811      .   S
    C189   O420      0.68811      .   S
    C281   O421      1.00838      .   S
    C5     O421      1.00838      .   S
    C196   O422      0.74290      .   S
    C198   O422      0.74290      .   S
    C197   O423      0.74291      .   S
    C199   O423      0.74291      .   S
    C188   O424      0.74309      .   S
    C186   O424      0.74309      .   S
    C120   O425      0.55213      .   S
    C234   O425      0.55213      .   S
    C189   O426      0.74308      .   S
    C187   O426      0.74308      .   S
    C121   O427      0.55225      .   S
    C235   O427      0.55225      .   S
    C4     O428      1.00711      .   S
    C326   O428      1.00711      .   S
    C5     O429      1.00379      .   S
    C327   O429      1.00379      .   S
    C76    O430      0.54953      .   S
    C198   O430      0.54953      .   S
    C60    O431      0.54936      .   S
    C184   O431      0.54936      .   S
    C77    O432      0.54957      .   S
    C199   O432      0.54957      .   S
    C61    O433      0.54933      .   S
    C185   O433      0.54933      .   S
    C234   O434      0.54828      .   S
    C118   O434      0.54828      .   S
    C234   O435      0.75056      .   S
    C232   O435      0.75056      .   S
    C235   O436      0.54833      .   S
    C119   O436      0.54833      .   S
    C235   O437      0.75107      .   S
    C233   O437      0.75107      .   S
    C198   O438      0.54749      .   S
    C74    O438      0.54749      .   S
    C198   O439      0.54903      .   S
    C78    O439      0.54903  1_565   S
    C184   O440      0.54995      .   S
    C62    O440      0.54995      .   S
    C184   O441      0.54759      .   S
    C58    O441      0.54759      .   S
    C185   O442      0.54991      .   S
    C63    O442      0.54991      .   S
    C185   O443      0.54751      .   S
    C59    O443      0.54751      .   S
    C199   O444      0.54748      .   S
    C75    O444      0.54748      .   S
    C199   O445      0.54898      .   S
    C79    O445      0.54898  1_565   S
    C68    O446      0.54972      .   S
    C186   O446      0.54972      .   S
    C69    O447      0.54972      .   S
    C187   O447      0.54972      .   S
    C346   O448      0.68825      .   S
    C232   O448      0.68825      .   S
    C346   O449      0.67904      .   S
    C230   O449      0.67904      .   S
    C347   O450      0.68816      .   S
    C233   O450      0.68816      .   S
    C347   O451      0.67895      .   S
    C231   O451      0.67895      .   S
    C186   O452      0.54821      .   S
    C64    O452      0.54821      .   S
    C186   O453      0.54893      .   S
    C66    O453      0.54893      .   S
    C187   O454      0.54819      .   S
    C65    O454      0.54819      .   S
    C187   O455      0.54892      .   S
    C67    O455      0.54892      .   S
    C232   O456      0.66402      .   S
    C348   O456      0.66402      .   S
    C233   O457      0.66430      .   S
    C349   O457      0.66430      .   S
    C116   O458      0.54977      .   S
    C228   O458      0.54977      .   S
    C80    O459      0.54812      .   S
    C200   O459      0.54812      .   S
    C117   O460      0.54983      .   S
    C229   O460      0.54983      .   S
    C81    O461      0.54763      .   S
    C201   O461      0.54763      .   S
    C114   O462      0.54940      .   S
    C228   O462      0.54940      .   S
    C115   O463      0.54940      .   S
    C229   O463      0.54940      .   S
    C326   O464      0.69425      .   S
    C324   O464      0.69425      .   S
    C326   O465      0.67230      .   S
    C202   O465      0.67230      .   S
    C327   O466      0.69403      .   S
    C325   O466      0.69403      .   S
    C327   O467      0.67163      .   S
    C203   O467      0.67163      .   S
    C230   O468      0.74354      .   S
    C228   O468      0.74354      .   S
    C230   O469      0.67229      .   S
    C350   O469      0.67229      .   S
    C231   O470      0.74355      .   S
    C229   O470      0.74355      .   S
    C231   O471      0.67204      .   S
    C351   O471      0.67204      .   S
    C228   O472      0.54759      .   S
    C112   O472      0.54759      .   S
    C229   O473      0.54757      .   S
    C113   O473      0.54757      .   S
    C348   O474      0.69406      .   S
    C350   O474      0.69406      .   S
    C324   O475      0.66423      .   S
    C204   O475      0.66423      .   S
    C325   O476      0.66430      .   S
    C205   O476      0.66430      .   S
    C349   O477      0.69420      .   S
    C351   O477      0.69420      .   S
    C200   O478      0.74356      .   S
    C202   O478      0.74356      .   S
    C200   O479      0.54939      .   S
    C82    O479      0.54939      .   S
    C200   O480      0.54980      .   S
    C84    O480      0.54980      .   S
    C201   O481      0.74351      .   S
    C203   O481      0.74351      .   S
    C201   O482      0.54938      .   S
    C83    O482      0.54938      .   S
    C201   O483      0.54977      .   S
    C85    O483      0.54977      .   S
    C202   O484      0.67903      .   S
    C322   O484      0.67903      .   S
    C203   O485      0.67940      .   S
    C323   O485      0.67940      .   S
    C350   O486      1.00419      .   S
    C0     O486      1.00419      .   S
    C351   O487      1.00605      .   S
    C1     O487      1.00605      .   S
    C34    O488      0.54893      .   S
    C158   O488      0.54893      .   S
    C35    O489      0.54887      .   S
    C159   O489      0.54887      .   S
    C46    O490      0.54892      .   S
    C170   O490      0.54892      .   S
    C33    O491      0.54833  1_655   S
    C158   O491      0.54833      .   S
    C32    O492      0.54842      .   S
    C159   O492      0.54842      .   S
    C47    O493      0.54902      .   S
    C171   O493      0.54902      .   S
    C204   O494      0.68817      .   S
    C322   O494      0.68817      .   S
    C204   O495      0.75082      .   S
    C206   O495      0.75082      .   S
    C205   O496      0.68820      .   S
    C323   O496      0.68820      .   S
    C205   O497      0.75108      .   S
    C207   O497      0.75108      .   S
    C26    O498      0.54752      .   S
    C156   O498      0.54752      .   S
    C27    O499      0.54785      .   S
    C157   O499      0.54785      .   S
    C30    O500      0.54992      .   S
    C156   O500      0.54992      .   S
    C158   O501      0.54978      .   S
    C36    O501      0.54978  1_565   S
    C158   O502      0.74318      .   S
    C160   O502      0.74318      .   S
    C31    O503      0.54995      .   S
    C157   O503      0.54995      .   S
    C159   O504      0.54971      .   S
    C37    O504      0.54971  1_565   S
    C159   O505      0.74307      .   S
    C161   O505      0.74307      .   S
    C322   O506      1.01480      .   S
    C10    O506      1.01480      .   S
    C323   O507      1.01871      .   S
    C11    O507      1.01871      .   S
    C86    O508      0.54831      .   S
    C206   O508      0.54831      .   S
    C87    O509      0.54834      .   S
    C207   O509      0.54834      .   S
    C42    O510      0.54748      .   S
    C170   O510      0.54748      .   S
    C43    O511      0.54749      .   S
    C171   O511      0.54749      .   S
    C170   O512      0.54961      .   S
    C44    O512      0.54961      .   S
    C170   O513      0.74293      .   S
    C168   O513      0.74293      .   S
    C156   O514      0.54938      .   S
    C28    O514      0.54938      .   S
    C156   O515      0.74341      .   S
    C154   O515      0.74341      .   S
    C157   O516      0.54936      .   S
    C29    O516      0.54936      .   S
    C157   O517      0.74346      .   S
    C155   O517      0.74346      .   S
    C171   O518      0.54957      .   S
    C45    O518      0.54957      .   S
    C171   O519      0.74289      .   S
    C169   O519      0.74289      .   S
    C206   O520      0.55221      .   S
    C88    O520      0.55221      .   S
    C206   O521      0.74896      .   S
    C208   O521      0.74896      .   S
    C207   O522      0.55224      .   S
    C89    O522      0.55224      .   S
    C207   O523      0.74888      .   S
    C209   O523      0.74888      .   S
    C0     O524      1.00911      .   S
    C256   O524      1.00911      .   S
    C0     O525      0.99866      .   S
    C268   O525      0.99866      .   S
    C0     O526      1.02185      .   S
    C262   O526      1.02185      .   S
    C1     O527      1.00509      .   S
    C257   O527      1.00509      .   S
    C1     O528      1.00107      .   S
    C269   O528      1.00107      .   S
    C1     O529      1.01892      .   S
    C263   O529      1.01892      .   S
    C160   O530      0.68816      .   S
    C256   O530      0.68816      .   S
    C160   O531      0.66400  1_455   S
    C259   O531      0.66400      .   S
    C161   O532      0.66368      .   S
    C258   O532      0.66368      .   S
    C161   O533      0.68805      .   S
    C257   O533      0.68805      .   S
    C104   O534      0.55256      .   S
    C220   O534      0.55256      .   S
    C105   O535      0.55252      .   S
    C221   O535      0.55252      .   S
    C102   O536      0.54781      .   S
    C220   O536      0.54781      .   S
    C103   O537      0.54792      .   S
    C221   O537      0.54792      .   S
    C168   O538      0.67797      .   S
    C262   O538      0.67797      .   S
    C168   O539      0.67229      .   S
    C266   O539      0.67229      .   S
    C169   O540      0.67775      .   S
    C263   O540      0.67775      .   S
    C169   O541      0.67219      .   S
    C267   O541      0.67219      .   S
    C256   O542      0.67773      .   S
    C162   O542      0.67773      .   S
    C258   O543      0.69263      .   S
    C260   O543      0.69263      .   S
    C259   O544      0.69293      .   S
    C261   O544      0.69293      .   S
    C257   O545      0.67759      .   S
    C163   O545      0.67759      .   S
    C154   O546      0.67258      .   S
    C268   O546      0.67258      .   S
    C154   O547      0.67617      .   S
    C272   O547      0.67617      .   S
    C155   O548      0.67293      .   S
    C269   O548      0.67293      .   S
    C155   O549      0.67653      .   S
    C273   O549      0.67653      .   S
    C268   O550      0.69497      .   S
    C270   O550      0.69497      .   S
    C269   O551      0.69508      .   S
    C271   O551      0.69508      .   S
    C262   O552      0.68612      .   S
    C166   O552      0.68612      .   S
    C263   O553      0.68586      .   S
    C167   O553      0.68586      .   S
    C220   O554      0.74842      .   S
    C222   O554      0.74842      .   S
    C220   O555      0.74805      .   S
    C218   O555      0.74805      .   S
    C208   O556      0.66380      .   S
    C318   O556      0.66380      .   S
    C208   O557      0.68574      .   S
    C320   O557      0.68574      .   S
    C221   O558      0.74819      .   S
    C223   O558      0.74819      .   S
    C221   O559      0.74769      .   S
    C219   O559      0.74769      .   S
    C10    O560      1.00760      .   S
    C266   O560      1.00760      .   S
    C10    O561      1.00788      .   S
    C320   O561      1.00788      .   S
    C10    O562      0.98937      .   S
    C308   O562      0.98937      .   S
    C209   O563      0.66379      .   S
    C319   O563      0.66379      .   S
    C209   O564      0.68572      .   S
    C321   O564      0.68572      .   S
    C11    O565      1.00689      .   S
    C267   O565      1.00689      .   S
    C11    O566      1.00240      .   S
    C321   O566      1.00240      .   S
    C11    O567      0.98502      .   S
    C309   O567      0.98502      .   S
    C266   O568      0.69269      .   S
    C264   O568      0.69269      .   S
    C267   O569      0.69290      .   S
    C265   O569      0.69290      .   S
    C312   O570      0.66302      .   S
    C222   O570      0.66302      .   S
    C312   O571      0.69289      .   S
    C314   O571      0.69289      .   S
    C313   O572      0.66295      .   S
    C223   O572      0.66295      .   S
    C313   O573      0.69274      .   S
    C315   O573      0.69274      .   S
    C318   O574      0.69515      .   S
    C316   O574      0.69515      .   S
    C319   O575      0.69502      .   S
    C317   O575      0.69502      .   S
    C162   O576      0.67014  1_455   S
    C261   O576      0.67014      .   S
    C162   O577      0.74770      .   S
    C164   O577      0.74770      .   S
    C163   O578      0.66974      .   S
    C260   O578      0.66974      .   S
    C163   O579      0.74805      .   S
    C165   O579      0.74805      .   S
    C260   O580      0.98499      .   S
    C2     O580      0.98499      .   S
    C261   O581      0.98806      .   S
    C3     O581      0.98806      .   S
    C222   O582      0.68585      .   S
    C310   O582      0.68585      .   S
    C223   O583      0.68614      .   S
    C311   O583      0.68614      .   S
    C272   O584      1.00240      .   S
    C2     O584      1.00240      .   S
    C272   O585      0.68574      .   S
    C152   O585      0.68574      .   S
    C273   O586      1.00713      .   S
    C3     O586      1.00713      .   S
    C273   O587      0.68573      .   S
    C153   O587      0.68573      .   S
    C320   O588      0.67651      .   S
    C210   O588      0.67651      .   S
    C321   O589      0.67617      .   S
    C211   O589      0.67617      .   S
    C166   O590      0.66294      .   S
    C264   O590      0.66294      .   S
    C166   O591      0.74819      .   S
    C164   O591      0.74819      .   S
    C167   O592      0.66301      .   S
    C265   O592      0.66301      .   S
    C167   O593      0.74837      .   S
    C165   O593      0.74837      .   S
    C308   O594      0.67014      .   S
    C219   O594      0.67014  1_655   S
    C308   O595      0.69292      .   S
    C306   O595      0.69292      .   S
    C309   O596      0.66972      .   S
    C218   O596      0.66972      .   S
    C309   O597      0.69263      .   S
    C307   O597      0.69263      .   S
    C218   O598      0.67758      .   S
    C304   O598      0.67758      .   S
    C219   O599      0.67776      .   S
    C305   O599      0.67776      .   S
    C270   O600      0.66381      .   S
    C152   O600      0.66381      .   S
    C271   O601      0.66383      .   S
    C153   O601      0.66383      .   S
    C314   O602      1.00689      .   S
    C2     O602      1.00689      .   S
    C314   O603      0.67223      .   S
    C224   O603      0.67223      .   S
    C315   O604      1.00742      .   S
    C3     O604      1.00742      .   S
    C315   O605      0.67203      .   S
    C225   O605      0.67203      .   S
    C2     O606      1.01864      .   S
    C274   O606      1.01864      .   S
    C152   O607      0.74888      .   S
    C150   O607      0.74888      .   S
    C3     O608      1.01726      .   S
    C275   O608      1.01726      .   S
    C164   O609      0.54793      .   S
    C38    O609      0.54793      .   S
    C164   O610      0.55256      .   S
    C40    O610      0.55256      .   S
    C153   O611      0.74890      .   S
    C151   O611      0.74890      .   S
    C165   O612      0.54777      .   S
    C39    O612      0.54777      .   S
    C165   O613      0.55255      .   S
    C41    O613      0.55255      .   S
    C310   O614      0.67776      .   S
    C224   O614      0.67776      .   S
    C310   O615      1.01891      .   S
    C8     O615      1.01891      .   S
    C311   O616      0.67783      .   S
    C225   O616      0.67783      .   S
    C311   O617      1.02184      .   S
    C9     O617      1.02184      .   S
    C316   O618      0.67295      .   S
    C210   O618      0.67295      .   S
    C316   O619      1.00107      .   S
    C8     O619      1.00107      .   S
    C317   O620      0.67257      .   S
    C211   O620      0.67257      .   S
    C317   O621      0.99864      .   S
    C9     O621      0.99864      .   S
    C210   O622      0.74341      .   S
    C212   O622      0.74341      .   S
    C211   O623      0.74339      .   S
    C213   O623      0.74339      .   S
    C304   O624      0.68808      .   S
    C216   O624      0.68808      .   S
    C304   O625      1.00512      .   S
    C8     O625      1.00512      .   S
    C306   O626      0.66402      .   S
    C217   O626      0.66402  1_655   S
    C307   O627      0.66367      .   S
    C216   O627      0.66367      .   S
    C305   O628      0.68817      .   S
    C217   O628      0.68817      .   S
    C305   O629      1.00910      .   S
    C9     O629      1.00910      .   S
    C224   O630      0.74289      .   S
    C226   O630      0.74289      .   S
    C225   O631      0.74322      .   S
    C227   O631      0.74322      .   S
    C216   O632      0.74306      .   S
    C214   O632      0.74306      .   S
    C217   O633      0.74271      .   S
    C215   O633      0.74271      .   S
    C24    O634      0.55223      .   S
    C150   O634      0.55223      .   S
    C25    O635      0.55218      .   S
    C151   O635      0.55218      .   S
    C8     O636      1.00605      .   S
    C302   O636      1.00605      .   S
    C108   O637      0.54956      .   S
    C226   O637      0.54956      .   S
    C9     O638      1.00427      .   S
    C303   O638      1.00427      .   S
    C92    O639      0.54935      .   S
    C212   O639      0.54935      .   S
    C109   O640      0.54959      .   S
    C227   O640      0.54959      .   S
    C93    O641      0.54939      .   S
    C213   O641      0.54939      .   S
    C150   O642      0.54831      .   S
    C22    O642      0.54831      .   S
    C150   O643      0.75106      .   S
    C148   O643      0.75106      .   S
    C151   O644      0.54831      .   S
    C23    O644      0.54831      .   S
    C151   O645      0.75088      .   S
    C149   O645      0.75088      .   S
    C226   O646      0.54749      .   S
    C106   O646      0.54749      .   S
    C226   O647      0.54902      .   S
    C110   O647      0.54902      .   S
    C212   O648      0.54998      .   S
    C94    O648      0.54998      .   S
    C212   O649      0.54754      .   S
    C90    O649      0.54754      .   S
    C213   O650      0.54993      .   S
    C95    O650      0.54993      .   S
    C213   O651      0.54751      .   S
    C91    O651      0.54751      .   S
    C227   O652      0.54748      .   S
    C107   O652      0.54748      .   S
    C227   O653      0.54899      .   S
    C111   O653      0.54899      .   S
    C100   O654      0.50668  1_545   S
    C214   O654      0.50668      .   S
    C101   O655      0.50907  1_545   S
    C215   O655      0.50907      .   S
    C274   O656      0.68820      .   S
    C148   O656      0.68820      .   S
    C274   O657      0.67890      .   S
    C146   O657      0.67890      .   S
    C275   O658      0.68817      .   S
    C149   O658      0.68817      .   S
    C275   O659      0.67903      .   S
    C147   O659      0.67903      .   S
    C214   O660      0.54816      .   S
    C97    O660      0.54816      .   S
    C214   O661      0.54887      .   S
    C98    O661      0.54887      .   S
    C215   O662      0.54852      .   S
    C96    O662      0.54852  1_455   S
    C215   O663      0.54939      .   S
    C99    O663      0.54939      .   S
    C148   O664      0.66421      .   S
    C276   O664      0.66421      .   S
    C149   O665      0.66414      .   S
    C277   O665      0.66414      .   S
    C20    O666      0.54977      .   S
    C144   O666      0.54977      .   S
    C48    O667      0.54765      .   S
    C172   O667      0.54765      .   S
    C21    O668      0.54975      .   S
    C145   O668      0.54975      .   S
    C49    O669      0.54759      .   S
    C173   O669      0.54759      .   S
    C18    O670      0.54934      .   S
    C144   O670      0.54934      .   S
    C19    O671      0.54934      .   S
    C145   O671      0.54934      .   S
    C302   O672      0.69420      .   S
    C300   O672      0.69420      .   S
    C302   O673      0.67203      .   S
    C174   O673      0.67203      .   S
    C303   O674      0.69404      .   S
    C301   O674      0.69404      .   S
    C303   O675      0.67228      .   S
    C175   O675      0.67228      .   S
    C146   O676      0.74353      .   S
    C144   O676      0.74353      .   S
    C146   O677      0.67204      .   S
    C278   O677      0.67204      .   S
    C147   O678      0.74355      .   S
    C145   O678      0.74355      .   S
    C147   O679      0.67222      .   S
    C279   O679      0.67222      .   S
    C144   O680      0.54772      .   S
    C16    O680      0.54772      .   S
    C145   O681      0.54772      .   S
    C17    O681      0.54772      .   S
    C300   O682      0.66421      .   S
    C176   O682      0.66421      .   S
    C276   O683      0.69403      .   S
    C278   O683      0.69403      .   S
    C277   O684      0.69425      .   S
    C279   O684      0.69425      .   S
    C301   O685      0.66411      .   S
    C177   O685      0.66411      .   S
    C172   O686      0.74355      .   S
    C174   O686      0.74355      .   S
    C172   O687      0.54940      .   S
    C50    O687      0.54940      .   S
    C172   O688      0.54983      .   S
    C52    O688      0.54983      .   S
    C173   O689      0.74355      .   S
    C175   O689      0.74355      .   S
    C173   O690      0.54940      .   S
    C51    O690      0.54940      .   S
    C173   O691      0.54977      .   S
    C53    O691      0.54977      .   S
    C174   O692      0.67895      .   S
    C298   O692      0.67895      .   S
    C175   O693      0.67904      .   S
    C299   O693      0.67904      .   S
    C278   O694      1.00388      .   S
    C12    O694      1.00388      .   S
    C279   O695      1.00720      .   S
    C13    O695      1.00720      .   S
    C130   O696      0.54884      .   S
    C242   O696      0.54884      .   S
    C131   O697      0.54852      .   S
    C243   O697      0.54852      .   S
    C128   O698      0.54817      .   S
    C242   O698      0.54817      .   S
    C142   O699      0.54898  1_545   S
    C254   O699      0.54898      .   S
    C143   O700      0.54903  1_545   S
    C255   O700      0.54903      .   S
    C129   O701      0.54822      .   S
    C243   O701      0.54822      .   S
    C176   O702      0.68819      .   S
    C298   O702      0.68819      .   S
    C176   O703      0.75113      .   S
    C178   O703      0.75113      .   S
    C177   O704      0.68823      .   S
    C299   O704      0.68823      .   S
    C177   O705      0.75057      .   S
    C179   O705      0.75057      .   S
    C122   O706      0.54779      .   S
    C240   O706      0.54779      .   S
    C123   O707      0.54759      .   S
    C241   O707      0.54759      .   S
    C126   O708      0.54997      .   S
    C240   O708      0.54997      .   S
    C242   O709      0.54956      .   S
    C132   O709      0.54956      .   S
    C242   O710      0.74309      .   S
    C244   O710      0.74309      .   S
    C127   O711      0.54996      .   S
    C241   O711      0.54996      .   S
    C243   O712      0.54987      .   S
    C133   O712      0.54987      .   S
    C243   O713      0.74347      .   S
    C245   O713      0.74347      .   S
    C298   O714      1.01659      .   S
    C6     O714      1.01659      .   S
    C299   O715      1.02027      .   S
    C7     O715      1.02027      .   S
    C54    O716      0.54832      .   S
    C178   O716      0.54832      .   S
    C55    O717      0.54832      .   S
    C179   O717      0.54832      .   S
    C138   O718      0.54759      .   S
    C254   O718      0.54759      .   S
    C139   O719      0.54747      .   S
    C255   O719      0.54747      .   S
    C254   O720      0.54957      .   S
    C140   O720      0.54957      .   S
    C254   O721      0.74290      .   S
    C252   O721      0.74290      .   S
    C240   O722      0.54935      .   S
    C124   O722      0.54935      .   S
    C240   O723      0.74335      .   S
    C238   O723      0.74335      .   S
    C241   O724      0.54935      .   S
    C125   O724      0.54935      .   S
    C241   O725      0.74338      .   S
    C239   O725      0.74338      .   S
    C255   O726      0.54954      .   S
    C141   O726      0.54954      .   S
    C255   O727      0.74283      .   S
    C253   O727      0.74283      .   S
    C178   O728      0.55222      .   S
    C56    O728      0.55222      .   S
    C178   O729      0.74904      .   S
    C180   O729      0.74904      .   S
    C179   O730      0.55210      .   S
    C57    O730      0.55210      .   S
    C179   O731      0.74850      .   S
    C181   O731      0.74850      .   S
    C12    O732      1.00839      .   S
    C328   O732      1.00839      .   S
    C12    O733      0.99916      .   S
    C340   O733      0.99916      .   S
    C12    O734      1.02081      .   S
    C334   O734      1.02081      .   S
    C13    O735      1.00716      .   S
    C329   O735      1.00716      .   S
    C13    O736      0.99897      .   S
    C341   O736      0.99897      .   S
    C13    O737      1.02017      .   S
    C335   O737      1.02017      .   S
    C244   O738      0.68811      .   S
    C328   O738      0.68811      .   S
    C244   O739      0.66379      .   S
    C330   O739      0.66379      .   S
    C245   O740      0.68816      .   S
    C329   O740      0.68816      .   S
    C245   O741      0.66375      .   S
    C331   O741      0.66375      .   S
    C72    O742      0.55250      .   S
    C192   O742      0.55250      .   S
    C73    O743      0.55254      .   S
    C193   O743      0.55254      .   S
    C70    O744      0.54789      .   S
    C192   O744      0.54789      .   S
    C71    O745      0.54793      .   S
    C193   O745      0.54793      .   S
    C252   O746      0.67778  1_565   S
    C334   O746      0.67778      .   S
    C252   O747      0.67219      .   S
    C338   O747      0.67219      .   S
    C253   O748      0.67790  1_565   S
    C335   O748      0.67790      .   S
    C253   O749      0.67234      .   S
    C339   O749      0.67234      .   S
    C328   O750      0.67748      .   S
    C246   O750      0.67748      .   S
    C330   O751      0.69274      .   S
    C332   O751      0.69274      .   S
    C329   O752      0.67786      .   S
    C247   O752      0.67786      .   S
    C238   O753      0.67300  1_455   S
    C341   O753      0.67300      .   S
    C238   O754      0.67659      .   S
    C344   O754      0.67659      .   S
    C331   O755      0.69272      .   S
    C333   O755      0.69272      .   S
    C239   O756      0.67269      .   S
    C340   O756      0.67269      .   S
    C239   O757      0.67637      .   S
    C345   O757      0.67637      .   S
    C192   O758      0.74832      .   S
    C194   O758      0.74832      .   S
    C180   O759      0.66387      .   S
    C295   O759      0.66387      .   S
    C6     O760      1.00719      .   S
    C338   O760      1.00719      .   S
    C193   O761      0.74827      .   S
    C195   O761      0.74827      .   S
    C181   O762      0.66384  1_655   S
    C294   O762      0.66384      .   S
    C7     O763      1.00693      .   S
    C339   O763      1.00693      .   S
    C288   O764      0.66288  1_545   S
    C194   O764      0.66288      .   S
    C289   O765      0.66294  1_545   S
    C195   O765      0.66294      .   S
    C246   O766      0.66993      .   S
    C332   O766      0.66993      .   S
    C247   O767      0.66980      .   S
    C333   O767      0.66980      .   S
