# CIF file generated by openbabel 2.4.90, see http://openbabel.sf.net
data_I
_chemical_name_common ''
_cell_length_a 15.135
_cell_length_b 14.352
_cell_length_c 21.106
_cell_angle_alpha 89.952
_cell_angle_beta 90.003
_cell_angle_gamma 90.053
_space_group_name_H-M_alt 'P 1'
_space_group_name_Hall 'P 1'
loop_
    _symmetry_equiv_pos_as_xyz
    x,y,z
loop_
    _atom_site_label
    _atom_site_type_symbol
    _atom_site_fract_x
    _atom_site_fract_y
    _atom_site_fract_z
    _atom_site_occupancy
    Cd0     Cd   0.74958   0.60229   0.43404   1.000
    Cd1     Cd   0.25039   0.39773   0.56596   1.000
    Cd2     Cd   0.75039   0.39771   0.56597   1.000
    Cd3     Cd   0.25001   0.10121   0.06592   1.000
    Cd4     Cd   0.74994   0.10120   0.06593   1.000
    Cd5     Cd   0.24957   0.89879   0.93409   1.000
    Cd6     Cd   0.74956   0.89884   0.93408   1.000
    Cd7     Cd   0.24959   0.60229   0.43405   1.000
    O8      O    0.24804   0.59005   0.32201   1.000
    O9      O    0.74802   0.59005   0.32200   1.000
    O10     O    0.25198   0.73387   0.36302   1.000
    C11     C    0.25011   0.67889   0.31600   1.000
    C12     C    0.75010   0.67889   0.31602   1.000
    C13     C    0.24874   0.84479   0.06399   1.000
    C14     C    0.74875   0.84478   0.06397   1.000
    C15     C    0.24988   0.32113   0.68398   1.000
    C16     C    0.74992   0.32111   0.68399   1.000
    C17     C    0.25044   0.15518   0.93601   1.000
    C18     C    0.74996   0.15523   0.93605   1.000
    C19     C    0.25003   0.17745   0.18400   1.000
    C20     C    0.75008   0.17742   0.18401   1.000
    C21     C    0.24991   0.34630   0.43492   1.000
    C22     C    0.74991   0.34630   0.43492   1.000
    C23     C    0.24996   0.82256   0.81601   1.000
    C24     C    0.74989   0.82260   0.81600   1.000
    C25     C    0.25008   0.65372   0.56509   1.000
    C26     C    0.75005   0.65371   0.56509   1.000
    O27     O    0.75196   0.73388   0.36301   1.000
    O28     O    0.24859   0.93334   0.05621   1.000
    O29     O    0.74862   0.93334   0.05620   1.000
    O30     O    0.24852   0.78926   0.01689   1.000
    O31     O    0.74851   0.78925   0.01688   1.000
    O32     O    0.25195   0.40997   0.67800   1.000
    O33     O    0.75194   0.40995   0.67801   1.000
    O34     O    0.24804   0.26615   0.63699   1.000
    O35     O    0.74806   0.26612   0.63700   1.000
    O36     O    0.25163   0.06664   0.94380   1.000
    O37     O    0.75172   0.06670   0.94385   1.000
    O38     O    0.24928   0.21071   0.98309   1.000
    O39     O    0.74834   0.21076   0.98313   1.000
    O40     O    0.24838   0.08862   0.17834   1.000
    O41     O    0.74842   0.08858   0.17836   1.000
    O42     O    0.25173   0.23214   0.13677   1.000
    O43     O    0.75181   0.23210   0.13677   1.000
    O44     O    0.24819   0.43478   0.44172   1.000
    O45     O    0.74817   0.43478   0.44172   1.000
    O46     O    0.25157   0.29133   0.48246   1.000
    O47     O    0.75156   0.29133   0.48240   1.000
    O48     O    0.25151   0.91140   0.82166   1.000
    O49     O    0.75145   0.91144   0.82165   1.000
    O50     O    0.24827   0.76788   0.86324   1.000
    O51     O    0.74823   0.76792   0.86324   1.000
    O52     O    0.25180   0.56524   0.55829   1.000
    O53     O    0.75178   0.56523   0.55830   1.000
    O54     O    0.24841   0.70869   0.51756   1.000
    O55     O    0.74839   0.70868   0.51750   1.000
loop_
    _geom_bond_atom_site_label_1
    _geom_bond_atom_site_label_2
    _geom_bond_distance
    _geom_bond_site_symmetry_2
    _ccdc_geom_bond_type
    O31    C14       1.27447      .   S
    O31    Cd6       2.35011  1_554   S
    O30    C13       1.27466      .   S
    O30    Cd5       2.34964  1_554   S
    O29    C14       1.28130      .   S
    O29    Cd4       2.41811  1_565   S
    O28    C13       1.28132      .   S
    O28    Cd3       2.41830  1_565   S
    Cd3    O42       2.40256      .   S
    Cd3    O40       2.37959      .   S
    Cd3    O38       2.34974  1_554   S
    Cd4    O43       2.40217      .   S
    Cd4    O41       2.37980      .   S
    Cd4    O39       2.35006  1_554   S
    O43    C20       1.26854      .   S
    O42    C19       1.26848      .   S
    O40    C19       1.28092      .   S
    O41    C20       1.28090      .   S
    C11    O8        1.28156      .   S
    C11    O10       1.26871      .   S
    C12    O9        1.28147      .   S
    C12    O27       1.26827      .   S
    O9     Cd0       2.37150      .   S
    O8     Cd7       2.37149      .   S
    O27    Cd0       2.41045      .   S
    O10    Cd7       2.41041      .   S
    Cd0    O45       2.40950      .   S
    Cd0    O55       2.33217      .   S
    Cd7    O44       2.40947      .   S
    Cd7    O54       2.33314      .   S
    C22    O45       1.27841      .   S
    C22    O47       1.27513      .   S
    C21    O44       1.27843      .   S
    C21    O46       1.27612      .   S
    O47    Cd2       2.33389      .   S
    O46    Cd1       2.33297      .   S
    O55    C26       1.27693      .   S
    O54    C25       1.27599      .   S
    O52    C25       1.27842      .   S
    O52    Cd1       2.40944      .   S
    O53    C26       1.27840      .   S
    O53    Cd2       2.40957      .   S
    Cd1    O34       2.41046      .   S
    Cd1    O32       2.37149      .   S
    Cd2    O35       2.41049      .   S
    Cd2    O33       2.37149      .   S
    O34    C15       1.26821      .   S
    O35    C16       1.26824      .   S
    O32    C15       1.28148      .   S
    O33    C16       1.28148      .   S
    C24    O49       1.28092      .   S
    C24    O51       1.26849      .   S
    C23    O48       1.28090      .   S
    C23    O50       1.26844      .   S
    O49    Cd6       2.37985      .   S
    O48    Cd5       2.37987      .   S
    O51    Cd6       2.40219      .   S
    O50    Cd5       2.40233      .   S
    Cd6    O37       2.41841  1_565   S
    Cd5    O36       2.41810  1_565   S
    C17    O36       1.28130      .   S
    C17    O38       1.27442      .   S
    C18    O37       1.28138      .   S
    C18    O39       1.27454      .   S
