# CIF file generated by openbabel 2.4.90, see http://openbabel.sf.net
data_I
_chemical_name_common ''
_cell_length_a 15.135
_cell_length_b 14.352
_cell_length_c 21.106
_cell_angle_alpha 89.952
_cell_angle_beta 90.003
_cell_angle_gamma 90.053
_space_group_name_H-M_alt 'P 1'
_space_group_name_Hall 'P 1'
loop_
    _symmetry_equiv_pos_as_xyz
    x,y,z
loop_
    _atom_site_label
    _atom_site_type_symbol
    _atom_site_fract_x
    _atom_site_fract_y
    _atom_site_fract_z
    _atom_site_occupancy
    N0      N    0.25022   0.78021   0.69043   1.000
    N1      N    0.00040   0.40494   0.56402   1.000
    N2      N    0.74998   0.28004   0.80967   1.000
    N3      N    0.24979   0.21981   0.30949   1.000
    N4      N    0.99957   0.59508   0.43598   1.000
    N5      N    0.49997   0.09426   0.06445   1.000
    N6      N    0.49960   0.90568   0.93560   1.000
    N7      N    0.99998   0.09441   0.06435   1.000
    N8      N    0.50040   0.40493   0.56400   1.000
    N9      N    0.49958   0.59508   0.43600   1.000
    N10     N    0.25015   0.28003   0.80965   1.000
    N11     N    0.99959   0.90568   0.93551   1.000
    N12     N    0.74970   0.71996   0.19033   1.000
    N13     N    0.75014   0.78022   0.69050   1.000
    N14     N    0.24970   0.71996   0.19035   1.000
    N15     N    0.74983   0.21980   0.30950   1.000
    Zr16    Zr   0.25000   0.50001   0.50000   1.000
    O17     O    0.33249   0.45162   0.53215   1.000
    O18     O    0.16791   0.45166   0.53219   1.000
    O19     O    0.33208   0.54836   0.46782   1.000
    O20     O    0.16749   0.54839   0.46785   1.000
    O21     O    0.24995   0.60485   0.36840   1.000
    O22     O    0.25001   0.39516   0.63160   1.000
    O23     O    0.25009   0.61379   0.57199   1.000
    O24     O    0.24991   0.38623   0.42800   1.000
    Zr25    Zr   0.74966   0.00001   0.00001   1.000
    O26     O    0.66733   0.95209   0.96768   1.000
    O27     O    0.83192   0.95203   0.96770   1.000
    O28     O    0.74983   0.11400   0.92829   1.000
    O29     O    0.74950   0.88602   0.07173   1.000
    O30     O    0.74986   0.89550   0.86847   1.000
    O31     O    0.74979   0.10452   0.13154   1.000
    O32     O    0.83210   0.04797   0.03231   1.000
    O33     O    0.66752   0.04795   0.03231   1.000
    Zr34    Zr   0.24976   1.00000   0.00000   1.000
    O35     O    0.25003   0.11398   0.92827   1.000
    O36     O    0.24955   0.88601   0.07173   1.000
    O37     O    0.24995   0.89548   0.86845   1.000
    O38     O    0.16758   0.04800   0.03228   1.000
    O39     O    0.33216   0.04791   0.03234   1.000
    O40     O    0.33197   0.95202   0.96772   1.000
    O41     O    0.16738   0.95207   0.96765   1.000
    O42     O    0.24982   0.10452   0.13154   1.000
    Zr43    Zr   0.74999   0.50000   0.50000   1.000
    O44     O    0.74994   0.60485   0.36838   1.000
    O45     O    0.66749   0.54839   0.46785   1.000
    O46     O    0.83207   0.54836   0.46781   1.000
    O47     O    0.75005   0.61378   0.57200   1.000
    O48     O    0.74992   0.38622   0.42800   1.000
    O49     O    0.74996   0.39515   0.63161   1.000
    O50     O    0.66790   0.45165   0.53218   1.000
    O51     O    0.83248   0.45162   0.53215   1.000
loop_
    _geom_bond_atom_site_label_1
    _geom_bond_atom_site_label_2
    _geom_bond_distance
    _geom_bond_site_symmetry_2
    _ccdc_geom_bond_type
    Zr16   O17       1.58182      .   S
    N8     O17       2.71319      .   S
    Zr16   O18       1.57616      .   S
    N1     O18       2.70645      .   S
    Zr16   O19       1.57607      .   S
    N9     O19       2.70622      .   S
    Zr16   O20       1.58195      .   S
    N4     O20       2.71346  1_655   S
    Zr16   O21       3.15786      .   S
    N14    O21       4.10380      .   S
    Zr16   O22       3.15783      .   S
    N10    O22       4.10389      .   S
    Zr16   O23       2.23132      .   S
    N0     O23       3.45892      .   S
    Zr16   O24       2.23163      .   S
    N3     O24       3.45992      .   S
    Zr25   O26       1.57813  1_544   S
    N6     O26       2.71004      .   S
    Zr25   O27       1.57844  1_544   S
    N11    O27       2.71085      .   S
    Zr25   O28       2.22791  1_554   S
    N2     O28       3.45496      .   S
    Zr25   O29       2.22793  1_545   S
    N12    O29       3.45483      .   S
    Zr25   O30       3.15671  1_544   S
    N13    O30       4.10563      .   S
    Zr25   O31       3.15657      .   S
    N15    O31       4.10538      .   S
    Zr25   O32       1.57941      .   S
    N7     O32       2.71192      .   S
    Zr25   O33       1.57681      .   S
    N5     O33       2.70863      .   S
    Zr34   O35       2.22798  1_564   S
    N10    O35       3.45505      .   S
    Zr34   O36       2.22803      .   S
    N14    O36       3.45503      .   S
    Zr34   O37       3.15698  1_554   S
    N0     O37       4.10662      .   S
    Zr34   O38       1.57736  1_565   S
    N7     O38       2.70940  1_655   S
    Zr34   O39       1.57901  1_565   S
    N5     O39       2.71102      .   S
    Zr34   O40       1.57762  1_554   S
    N6     O40       2.70969      .   S
    Zr34   O41       1.57890  1_554   S
    N11    O41       2.71111  1_655   S
    Zr34   O42       3.15668  1_565   S
    N3     O42       4.10551      .   S
    Zr43   O44       3.15812      .   S
    N12    O44       4.10391      .   S
    Zr43   O45       1.58190      .   S
    N9     O45       2.71325      .   S
    Zr43   O46       1.57612      .   S
    N4     O46       2.70637      .   S
    Zr43   O47       2.23168      .   S
    N13    O47       3.45993      .   S
    Zr43   O48       2.23156      .   S
    N15    O48       3.45987      .   S
    Zr43   O49       3.15801      .   S
    N2     O49       4.10402      .   S
    Zr43   O50       1.57615      .   S
    N8     O50       2.70629      .   S
    Zr43   O51       1.58188      .   S
    N1     O51       2.71331  1_455   S
