# CIF file generated by openbabel 2.4.90, see http://openbabel.sf.net
data_I
_chemical_name_common ''
_cell_length_a 18.463
_cell_length_b 21.015
_cell_length_c 15.668
_cell_angle_alpha 94.029
_cell_angle_beta 89.958
_cell_angle_gamma 89.91
_space_group_name_H-M_alt 'P 1'
_space_group_name_Hall 'P 1'
loop_
    _symmetry_equiv_pos_as_xyz
    x,y,z
loop_
    _atom_site_label
    _atom_site_type_symbol
    _atom_site_fract_x
    _atom_site_fract_y
    _atom_site_fract_z
    _atom_site_occupancy
    H0      H    0.06081   0.20682   0.77494   1.000
    H1      H    0.06104   0.70690   0.77342   1.000
    H2      H    0.56082   0.20682   0.77494   1.000
    H3      H    0.56105   0.70690   0.77342   1.000
    H4      H    0.06974   0.24962   0.69202   1.000
    H5      H    0.07066   0.75021   0.69117   1.000
    H6      H    0.56975   0.24962   0.69202   1.000
    H7      H    0.57068   0.75021   0.69117   1.000
    H8      H    0.28980   0.09018   0.28483   1.000
    H9      H    0.28998   0.59000   0.28516   1.000
    H10     H    0.78981   0.09018   0.28483   1.000
    H11     H    0.78999   0.59000   0.28516   1.000
    H12     H    0.12244   0.09055   0.10250   1.000
    H13     H    0.12237   0.59070   0.10325   1.000
    H14     H    0.62245   0.09055   0.10250   1.000
    H15     H    0.62238   0.59070   0.10325   1.000
    H16     H    0.27881   0.26519   0.06792   1.000
    H17     H    0.27790   0.76591   0.06987   1.000
    H18     H    0.77882   0.26519   0.06792   1.000
    H19     H    0.77791   0.76591   0.06987   1.000
    H20     H    0.18743   0.15598   0.98508   1.000
    H21     H    0.18695   0.65672   0.98621   1.000
    H22     H    0.68744   0.15598   0.98508   1.000
    H23     H    0.68696   0.65672   0.98621   1.000
    H24     H    0.28340   0.16255   0.99113   1.000
    H25     H    0.28291   0.66351   0.99215   1.000
    H26     H    0.78341   0.16255   0.99113   1.000
    H27     H    0.78292   0.66351   0.99215   1.000
    H28     H    0.11315   0.28393   0.26737   1.000
    H29     H    0.11026   0.78438   0.26818   1.000
    H30     H    0.61316   0.28393   0.26737   1.000
    H31     H    0.61027   0.78438   0.26818   1.000
    H32     H    0.06596   0.32284   0.18975   1.000
    H33     H    0.06431   0.82352   0.18970   1.000
    H34     H    0.56597   0.32284   0.18975   1.000
    H35     H    0.56432   0.82352   0.18970   1.000
    H36     H    0.07990   0.44275   0.19360   1.000
    H37     H    0.08014   0.94336   0.19303   1.000
    H38     H    0.57991   0.44275   0.19360   1.000
    H39     H    0.58015   0.94336   0.19303   1.000
    H40     H    0.16887   0.44087   0.19199   1.000
    H41     H    0.16909   0.94049   0.19330   1.000
    H42     H    0.66888   0.44087   0.19199   1.000
    H43     H    0.66911   0.94049   0.19330   1.000
    H44     H    0.08159   0.38977   0.32963   1.000
    H45     H    0.07904   0.89076   0.32953   1.000
    H46     H    0.58160   0.38977   0.32963   1.000
    H47     H    0.57905   0.89076   0.32953   1.000
    H48     H    0.17692   0.38628   0.31652   1.000
    H49     H    0.17440   0.88620   0.31810   1.000
    H50     H    0.67693   0.38628   0.31652   1.000
    H51     H    0.67441   0.88620   0.31819   1.000
    H52     H    0.12988   0.35937   0.62690   1.000
    H53     H    0.13012   0.85918   0.62691   1.000
    H54     H    0.62990   0.35937   0.62690   1.000
    H55     H    0.63013   0.85918   0.62691   1.000
    H56     H    0.11863   0.24777   0.09132   1.000
    H57     H    0.11758   0.74830   0.09180   1.000
    H58     H    0.61864   0.24777   0.09132   1.000
    H59     H    0.61759   0.74830   0.09180   1.000
    H60     H    0.29429   0.02487   0.54977   1.000
    H61     H    0.29456   0.52461   0.54947   1.000
    H62     H    0.79430   0.02487   0.54977   1.000
    H63     H    0.79458   0.52461   0.54947   1.000
    H64     H    0.13671   0.01827   0.59271   1.000
    H65     H    0.13712   0.51839   0.59294   1.000
    H66     H    0.63673   0.01827   0.59271   1.000
    H67     H    0.63713   0.51839   0.59294   1.000
    H68     H    0.18360   0.17092   0.76314   1.000
    H69     H    0.18371   0.67040   0.76177   1.000
    H70     H    0.68361   0.17092   0.76314   1.000
    H71     H    0.68372   0.67040   0.76177   1.000
    H72     H    0.19729   0.21913   0.67660   1.000
    H73     H    0.19801   0.71922   0.67593   1.000
    H74     H    0.69730   0.21913   0.67660   1.000
    H75     H    0.69802   0.71922   0.67593   1.000
    H76     H    0.28404   0.38650   0.82345   1.000
    H77     H    0.28404   0.88670   0.82365   1.000
    H78     H    0.78405   0.38650   0.82345   1.000
    H79     H    0.78405   0.88670   0.82365   1.000
    H80     H    0.09432   0.10370   0.67627   1.000
    H81     H    0.09405   0.60440   0.67385   1.000
    H82     H    0.59434   0.10370   0.67627   1.000
    H83     H    0.59407   0.60440   0.67385   1.000
    H84     H    0.84743   0.84051   0.40707   1.000
    H85     H    0.44353   0.08904   0.49620   1.000
    H86     H    0.44422   0.58919   0.49636   1.000
    H87     H    0.94354   0.08904   0.49620   1.000
    H88     H    0.09705   0.15837   0.59533   1.000
    H89     H    0.09777   0.65955   0.59348   1.000
    H90     H    0.59706   0.15837   0.59533   1.000
    H91     H    0.59778   0.65955   0.59348   1.000
    H92     H    0.19599   0.41060   0.50500   1.000
    H93     H    0.19620   0.91053   0.50505   1.000
    H94     H    0.69600   0.41060   0.50500   1.000
    H95     H    0.69621   0.91053   0.50505   1.000
    H96     H    0.29170   0.41378   0.51246   1.000
    H97     H    0.29189   0.91398   0.51264   1.000
    H98     H    0.79172   0.41378   0.51246   1.000
    H99     H    0.79191   0.91398   0.51264   1.000
    H100    H    0.31074   0.29390   0.22512   1.000
    H101    H    0.31070   0.79378   0.22662   1.000
    H102    H    0.81076   0.29390   0.22512   1.000
    H103    H    0.81071   0.79378   0.22662   1.000
    H104    H    0.31961   0.25101   0.30795   1.000
    H105    H    0.32014   0.75041   0.30881   1.000
    H106    H    0.81962   0.25101   0.30795   1.000
    H107    H    0.82015   0.75041   0.30881   1.000
    H108    H    0.03974   0.41106   0.71663   1.000
    H109    H    0.03978   0.91077   0.71635   1.000
    H110    H    0.53975   0.41106   0.71663   1.000
    H111    H    0.53979   0.91077   0.71635   1.000
    H112    H    0.37298   0.41097   0.90000   1.000
    H113    H    0.37298   0.91012   0.89960   1.000
    H114    H    0.87300   0.41097   0.90000   1.000
    H115    H    0.87299   0.91012   0.89960   1.000
    C116    C    0.18090   0.31098   0.16536   1.000
    C117    C    0.17945   0.81100   0.16715   1.000
    C118    C    0.68092   0.31098   0.16536   1.000
    C119    C    0.67946   0.81100   0.16715   1.000
    C120    C    0.15679   0.19069   0.70819   1.000
    H121    H    0.02905   0.23505   0.93249   1.000
    H122    H    0.02892   0.73400   0.93193   1.000
    H123    H    0.52906   0.23505   0.93249   1.000
    H124    H    0.52893   0.73400   0.93193   1.000
    H125    H    0.43781   0.34430   0.01621   1.000
    H126    H    0.43804   0.84350   0.01569   1.000
    H127    H    0.93782   0.34430   0.01621   1.000
    H128    H    0.93805   0.84350   0.01569   1.000
    H129    H    0.03375   0.33739   0.00977   1.000
    H130    H    0.03396   0.83649   0.00898   1.000
    H131    H    0.53376   0.33739   0.00977   1.000
    H132    H    0.53398   0.83649   0.00898   1.000
    H133    H    0.36460   0.21731   0.73206   1.000
    H134    H    0.36301   0.71740   0.73177   1.000
    H135    H    0.86462   0.21731   0.73206   1.000
    H136    H    0.86302   0.71740   0.73177   1.000
    H137    H    0.31631   0.17960   0.80990   1.000
    H138    H    0.31551   0.67961   0.81029   1.000
    H139    H    0.81632   0.17960   0.80990   1.000
    H140    H    0.81552   0.67961   0.81029   1.000
    H141    H    0.32959   0.05942   0.80820   1.000
    H142    H    0.32963   0.55925   0.80849   1.000
    H143    H    0.82960   0.05942   0.80820   1.000
    H144    H    0.82964   0.55925   0.80849   1.000
    H145    H    0.41858   0.06100   0.81000   1.000
    H146    H    0.41861   0.56141   0.80882   1.000
    H147    H    0.91860   0.06100   0.81000   1.000
    H148    H    0.91863   0.56141   0.80882   1.000
    H149    H    0.33164   0.11113   0.67135   1.000
    H150    H    0.32954   0.61100   0.67158   1.000
    H151    H    0.83165   0.11113   0.67135   1.000
    H152    H    0.82955   0.61100   0.67158   1.000
    H153    H    0.42702   0.11404   0.68412   1.000
    H154    H    0.42497   0.61438   0.68266   1.000
    H155    H    0.92703   0.11404   0.68412   1.000
    H156    H    0.92499   0.61438   0.68266   1.000
    H157    H    0.37792   0.14029   0.37363   1.000
    H158    H    0.37835   0.64056   0.37392   1.000
    H159    H    0.87794   0.14029   0.37363   1.000
    H160    H    0.87837   0.64056   0.37392   1.000
    H161    H    0.36888   0.25301   0.90920   1.000
    H162    H    0.36869   0.75207   0.90974   1.000
    H163    H    0.86890   0.25301   0.90920   1.000
    H164    H    0.86870   0.75207   0.90974   1.000
    H165    H    0.04349   0.47535   0.45103   1.000
    H166    H    0.04365   0.97571   0.45127   1.000
    H167    H    0.54350   0.47535   0.45103   1.000
    H168    H    0.54367   0.97571   0.45127   1.000
    H169    H    0.38586   0.48175   0.40859   1.000
    H170    H    0.38613   0.98160   0.40835   1.000
    H171    H    0.88587   0.48175   0.40859   1.000
    H172    H    0.88614   0.98160   0.40835   1.000
    H173    H    0.43338   0.32973   0.23710   1.000
    H174    H    0.43333   0.83005   0.23856   1.000
    H175    H    0.93339   0.32973   0.23710   1.000
    H176    H    0.93334   0.83005   0.23856   1.000
    H177    H    0.44724   0.28112   0.32319   1.000
    H178    H    0.44760   0.78087   0.32400   1.000
    H179    H    0.94725   0.28112   0.32319   1.000
    H180    H    0.94761   0.78087   0.32400   1.000
    H181    H    0.03479   0.11558   0.17943   1.000
    H182    H    0.03432   0.61469   0.17886   1.000
    H183    H    0.53481   0.11558   0.17943   1.000
    H184    H    0.53433   0.61469   0.17886   1.000
    H185    H    0.34392   0.39665   0.32473   1.000
    H186    H    0.34354   0.89595   0.32710   1.000
    H187    H    0.84394   0.39665   0.32473   1.000
    H188    H    0.84356   0.89595   0.32710   1.000
    H189    H    0.34691   0.34162   0.40519   1.000
    H190    H    0.34742   0.84051   0.40707   1.000
    H191    H    0.84693   0.34162   0.40519   1.000
    N192    N    0.03420   0.86186   0.83324   1.000
    N193    N    0.53418   0.36243   0.83370   1.000
    N194    N    0.53422   0.86186   0.83324   1.000
    N195    N    0.37462   0.05777   0.76957   1.000
    N196    N    0.37419   0.55788   0.76910   1.000
    N197    N    0.87463   0.05777   0.76957   1.000
    N198    N    0.87421   0.55788   0.76910   1.000
    N199    N    0.03383   0.07971   0.30538   1.000
    H200    H    0.94423   0.58919   0.49636   1.000
    H201    H    0.03931   0.08663   0.48980   1.000
    H202    H    0.03996   0.58626   0.48940   1.000
    H203    H    0.53933   0.08663   0.48980   1.000
    H204    H    0.53997   0.58626   0.48940   1.000
    C205    C    0.25922   0.10214   0.22903   1.000
    C206    C    0.25931   0.60210   0.22950   1.000
    C207    C    0.75924   0.10214   0.22903   1.000
    C208    C    0.75932   0.60210   0.22950   1.000
    C209    C    0.17355   0.10186   0.13407   1.000
    C210    C    0.17347   0.60202   0.13474   1.000
    C211    C    0.67356   0.10186   0.13407   1.000
    C212    C    0.67349   0.60202   0.13474   1.000
    C213    C    0.22959   0.13828   0.10608   1.000
    C214    C    0.22936   0.63867   0.10690   1.000
    C215    C    0.72960   0.13828   0.10608   1.000
    C216    C    0.72937   0.63867   0.10690   1.000
    C217    C    0.21856   0.27403   0.95262   1.000
    C218    C    0.21842   0.77448   0.95399   1.000
    C219    C    0.71857   0.27403   0.95262   1.000
    C220    C    0.71843   0.77448   0.95399   1.000
    C221    C    0.22765   0.24690   0.04067   1.000
    C222    C    0.22692   0.74754   0.04221   1.000
    C223    C    0.72766   0.24690   0.04067   1.000
    C224    C    0.72693   0.74754   0.04221   1.000
    C225    C    0.23271   0.17303   0.02629   1.000
    C226    C    0.23223   0.67372   0.02745   1.000
    C227    C    0.73272   0.17303   0.02629   1.000
    C228    C    0.73224   0.67372   0.02745   1.000
    C229    C    0.11710   0.32409   0.22592   1.000
    C230    C    0.11503   0.82443   0.22667   1.000
    C231    C    0.61711   0.32409   0.22592   1.000
    C232    C    0.61505   0.82443   0.22667   1.000
    C233    C    0.12521   0.38593   0.28202   1.000
    C234    C    0.12320   0.88632   0.28268   1.000
    C235    C    0.62523   0.38593   0.28202   1.000
    C236    C    0.62322   0.88632   0.28268   1.000
    C237    C    0.23405   0.41196   0.63086   1.000
    C238    C    0.23415   0.91197   0.63096   1.000
    C239    C    0.73406   0.41196   0.63086   1.000
    C240    C    0.73416   0.91197   0.63096   1.000
    C241    C    0.17836   0.37602   0.66061   1.000
    C242    C    0.17853   0.87592   0.66067   1.000
    C243    C    0.67837   0.37602   0.66061   1.000
    C244    C    0.67854   0.87592   0.66067   1.000
    C245    C    0.23140   0.01428   0.43489   1.000
    C246    C    0.23150   0.51418   0.43475   1.000
    C247    C    0.73142   0.01428   0.43489   1.000
    C248    C    0.73151   0.51418   0.43475   1.000
    C249    C    0.24114   0.00517   0.53124   1.000
    C250    C    0.24132   0.50507   0.53107   1.000
    C251    C    0.74115   0.00517   0.53124   1.000
    C252    C    0.74133   0.50507   0.53107   1.000
    C253    C    0.15723   0.69073   0.70701   1.000
    C254    C    0.65680   0.19069   0.70819   1.000
    C255    C    0.65724   0.69073   0.70701   1.000
    C256    C    0.25679   0.39089   0.76300   1.000
    C257    C    0.25685   0.89099   0.76316   1.000
    C258    C    0.75680   0.39089   0.76300   1.000
    C259    C    0.75686   0.89099   0.76316   1.000
    C260    C    0.12968   0.13718   0.64518   1.000
    C261    C    0.12990   0.63776   0.64326   1.000
    C262    C    0.62969   0.13718   0.64518   1.000
    C263    C    0.62991   0.63776   0.64326   1.000
    C264    C    0.24131   0.43259   0.54199   1.000
    C265    C    0.24141   0.93264   0.54211   1.000
    C266    C    0.74132   0.43259   0.54199   1.000
    C267    C    0.74142   0.93264   0.54211   1.000
    C268    C    0.19296   0.10312   0.59920   1.000
    C269    C    0.19299   0.60341   0.59730   1.000
    C270    C    0.69297   0.10312   0.59920   1.000
    C271    C    0.69300   0.60341   0.59730   1.000
    C272    C    0.00932   0.39908   0.77258   1.000
    C273    C    0.00935   0.89865   0.77220   1.000
    C274    C    0.50933   0.39908   0.77258   1.000
    C275    C    0.50936   0.89865   0.77220   1.000
    C276    C    0.42395   0.39946   0.86809   1.000
    C277    C    0.42396   0.89873   0.86768   1.000
    C278    C    0.92397   0.39946   0.86809   1.000
    C279    C    0.92397   0.89873   0.86768   1.000
    C280    C    0.47985   0.36241   0.89528   1.000
    C281    C    0.47988   0.86166   0.89473   1.000
    C282    C    0.97987   0.36241   0.89528   1.000
    C283    C    0.97989   0.86166   0.89473   1.000
    C284    C    0.46864   0.22602   0.04768   1.000
    C285    C    0.46851   0.72562   0.04745   1.000
    C286    C    0.96865   0.22602   0.04768   1.000
    C287    C    0.96853   0.72562   0.04745   1.000
    C288    C    0.47788   0.25344   0.95985   1.000
    C289    C    0.47785   0.75258   0.95932   1.000
    C290    C    0.97790   0.25344   0.95985   1.000
    C291    C    0.97786   0.75258   0.95932   1.000
    C292    C    0.48303   0.32725   0.97473   1.000
    C293    C    0.48316   0.82642   0.97408   1.000
    C294    C    0.98304   0.32725   0.97473   1.000
    C295    C    0.98318   0.82642   0.97408   1.000
    C296    C    0.36766   0.17741   0.77404   1.000
    C297    C    0.36648   0.67748   0.77368   1.000
    C298    C    0.86767   0.17741   0.77404   1.000
    C299    C    0.86649   0.67748   0.77368   1.000
    C300    C    0.37532   0.11513   0.71878   1.000
    C301    C    0.37376   0.61521   0.71828   1.000
    C302    C    0.87533   0.11513   0.71878   1.000
    C303    C    0.87377   0.61521   0.71828   1.000
    C304    C    0.48281   0.08857   0.37084   1.000
    C305    C    0.48299   0.58844   0.37076   1.000
    C306    C    0.98283   0.08857   0.37084   1.000
    C307    C    0.98301   0.58844   0.37076   1.000
    C308    C    0.42698   0.12418   0.34052   1.000
    C309    C    0.42722   0.62420   0.34060   1.000
    C310    C    0.92699   0.12418   0.34052   1.000
    C311    C    0.92723   0.62420   0.34060   1.000
    C312    C    0.48118   0.48579   0.56646   1.000
    C313    C    0.48120   0.98585   0.56658   1.000
    C314    C    0.98120   0.48579   0.56646   1.000
    C315    C    0.98121   0.98585   0.56658   1.000
    C316    C    0.99026   0.49487   0.46998   1.000
    C317    C    0.99029   0.99498   0.47013   1.000
    C318    C    0.49028   0.49487   0.46998   1.000
    C319    C    0.49030   0.99498   0.47013   1.000
    C320    C    0.43128   0.18995   0.83480   1.000
    C321    C    0.43076   0.68991   0.83352   1.000
    C322    C    0.93129   0.18995   0.83480   1.000
    C323    C    0.93078   0.68991   0.83352   1.000
    C324    C    0.40664   0.30975   0.29194   1.000
    C325    C    0.40683   0.80960   0.29320   1.000
    C326    C    0.90666   0.30975   0.29194   1.000
    C327    C    0.90684   0.80960   0.29320   1.000
    C328    C    0.00687   0.11057   0.23932   1.000
    C329    C    0.00664   0.61001   0.23898   1.000
    C330    C    0.50689   0.11057   0.23932   1.000
    C331    C    0.50666   0.61001   0.23898   1.000
    C332    C    0.37944   0.36302   0.35543   1.000
    C333    C    0.37949   0.86241   0.35735   1.000
    C334    C    0.87945   0.36302   0.35543   1.000
    C335    C    0.87950   0.86241   0.35735   1.000
    C336    C    0.48945   0.06755   0.45958   1.000
    C337    C    0.48986   0.56745   0.45947   1.000
    C338    C    0.98946   0.06755   0.45958   1.000
    C339    C    0.98987   0.56745   0.45947   1.000
    C340    C    0.44261   0.39696   0.40149   1.000
    C341    C    0.44250   0.89662   0.40338   1.000
    C342    C    0.94262   0.39696   0.40149   1.000
    C343    C    0.94251   0.89662   0.40338   1.000
    N344    N    0.09811   0.23340   0.74260   1.000
    N345    N    0.09872   0.73351   0.74167   1.000
    N346    N    0.59813   0.23340   0.74260   1.000
    N347    N    0.59873   0.73351   0.74167   1.000
    N348    N    0.19289   0.36259   0.74411   1.000
    N349    N    0.19305   0.86255   0.74420   1.000
    N350    N    0.69290   0.36259   0.74411   1.000
    N351    N    0.69306   0.86255   0.74420   1.000
    N352    N    0.19221   0.07926   0.21206   1.000
    N353    N    0.19234   0.57916   0.21248   1.000
    N354    N    0.69223   0.07926   0.21206   1.000
    N355    N    0.69235   0.57916   0.21248   1.000
    N356    N    0.28411   0.13820   0.16727   1.000
    N357    N    0.28399   0.63845   0.16790   1.000
    N358    N    0.78412   0.13820   0.16727   1.000
    N359    N    0.78400   0.63845   0.16790   1.000
    N360    N    0.12480   0.44387   0.23237   1.000
    N361    N    0.12444   0.94409   0.23270   1.000
    N362    N    0.62481   0.44387   0.23237   1.000
    N363    N    0.62445   0.94409   0.23270   1.000
    N364    N    0.28413   0.42167   0.69709   1.000
    N365    N    0.28416   0.92180   0.69725   1.000
    N366    N    0.78415   0.42167   0.69709   1.000
    N367    N    0.78417   0.92180   0.69725   1.000
    N368    N    0.17020   0.26654   0.10042   1.000
    N369    N    0.16910   0.76706   0.10150   1.000
    N370    N    0.67021   0.26654   0.10042   1.000
    N371    N    0.66912   0.76706   0.10150   1.000
    N372    N    0.18674   0.03892   0.58429   1.000
    N373    N    0.18707   0.53905   0.58409   1.000
    N374    N    0.68676   0.03892   0.58429   1.000
    N375    N    0.68708   0.53905   0.58409   1.000
    N376    N    0.34804   0.26722   0.25741   1.000
    N377    N    0.34832   0.76706   0.25837   1.000
    N378    N    0.84805   0.26722   0.25741   1.000
    N379    N    0.84834   0.76706   0.25837   1.000
    N380    N    0.44234   0.13815   0.25740   1.000
    N381    N    0.44234   0.63791   0.25731   1.000
    N382    N    0.94236   0.13815   0.25740   1.000
    N383    N    0.94235   0.63791   0.25731   1.000
    N384    N    0.44253   0.42243   0.79000   1.000
    N385    N    0.44253   0.92191   0.79001   1.000
    N386    N    0.94254   0.42243   0.79000   1.000
    N387    N    0.94255   0.92191   0.79001   1.000
    N388    N    0.03417   0.36243   0.83370   1.000
    N389    N    0.03371   0.57922   0.30504   1.000
    N390    N    0.53384   0.07971   0.30538   1.000
    N391    N    0.53372   0.57922   0.30504   1.000
    N392    N    0.42052   0.23423   0.89990   1.000
    N393    N    0.42028   0.73339   0.89971   1.000
    N394    N    0.92053   0.23423   0.89990   1.000
    N395    N    0.92029   0.73339   0.89971   1.000
    N396    N    0.43592   0.46107   0.41724   1.000
    N397    N    0.43611   0.96091   0.41742   1.000
    N398    N    0.93593   0.46107   0.41724   1.000
    N399    N    0.93612   0.96091   0.41742   1.000
    O400    O    0.15289   0.28883   0.93340   1.000
    O401    O    0.15287   0.78884   0.93360   1.000
    O402    O    0.65290   0.28883   0.93340   1.000
    O403    O    0.65289   0.78884   0.93360   1.000
    O404    O    0.27224   0.27759   0.90440   1.000
    O405    O    0.27263   0.77806   0.90670   1.000
    O406    O    0.77225   0.27759   0.90440   1.000
    O407    O    0.77265   0.77806   0.90670   1.000
    O408    O    0.16569   0.02778   0.41324   1.000
    O409    O    0.16576   0.52762   0.41317   1.000
    O410    O    0.66570   0.02778   0.41324   1.000
    O411    O    0.66577   0.52762   0.41317   1.000
    O412    O    0.23995   0.33966   0.17827   1.000
    O413    O    0.23853   0.83929   0.18140   1.000
    O414    O    0.73996   0.33966   0.17827   1.000
    O415    O    0.73854   0.83929   0.18140   1.000
    O416    O    0.28406   0.00567   0.38528   1.000
    O417    O    0.28414   0.50560   0.38512   1.000
    O418    O    0.78407   0.00567   0.38528   1.000
    O419    O    0.78415   0.50560   0.38512   1.000
    O420    O    0.24712   0.13339   0.57777   1.000
    O421    O    0.24684   0.63348   0.57440   1.000
    O422    O    0.74713   0.13339   0.57777   1.000
    O423    O    0.74685   0.63348   0.57440   1.000
    O424    O    0.40298   0.21109   0.06668   1.000
    O425    O    0.40283   0.71098   0.06667   1.000
    O426    O    0.90299   0.21109   0.06668   1.000
    O427    O    0.90284   0.71098   0.06667   1.000
    O428    O    0.02220   0.22236   0.09590   1.000
    O429    O    0.02204   0.72219   0.09581   1.000
    O430    O    0.52221   0.22236   0.09590   1.000
    O431    O    0.52206   0.72219   0.09581   1.000
    O432    O    0.41567   0.47249   0.58905   1.000
    O433    O    0.41568   0.97256   0.58915   1.000
    O434    O    0.91568   0.47249   0.58905   1.000
    O435    O    0.91569   0.97256   0.58915   1.000
    O436    O    0.99024   0.16095   0.82188   1.000
    O437    O    0.98976   0.66132   0.81890   1.000
    O438    O    0.49025   0.16095   0.82188   1.000
    O439    O    0.48978   0.66132   0.81890   1.000
    O440    O    0.03425   0.49437   0.61526   1.000
    O441    O    0.03426   0.99438   0.61540   1.000
    O442    O    0.53426   0.49437   0.61526   1.000
    O443    O    0.53427   0.99438   0.61540   1.000
    O444    O    0.99701   0.36666   0.42231   1.000
    O445    O    0.99660   0.86652   0.42559   1.000
    O446    O    0.49702   0.36666   0.42231   1.000
    O447    O    0.49661   0.86652   0.42559   1.000
loop_
    _geom_bond_atom_site_label_1
    _geom_bond_atom_site_label_2
    _geom_bond_distance
    _geom_bond_site_symmetry_2
    _ccdc_geom_bond_type
    H130   C295      1.09919  1_454   S
    H132   C293      1.09959  1_554   S
    H131   C292      1.09964  1_554   S
    H129   C294      1.09923  1_454   S
    H126   C293      1.10146  1_554   S
    H128   C295      1.10146  1_554   S
    H125   C292      1.10148  1_554   S
    H127   C294      1.10148  1_554   S
    C227   C223      1.55541      .   S
    C227   C215      1.49263      .   S
    C227   H22       1.10158  1_554   S
    C227   H26       1.09971  1_554   S
    C225   C221      1.55541      .   S
    C225   C213      1.49263      .   S
    C225   H20       1.10158  1_554   S
    C225   H24       1.09972  1_554   S
    C228   C224      1.55526      .   S
    C228   C216      1.49129      .   S
    C228   H23       1.10156  1_554   S
    C228   H27       1.09965  1_554   S
    C226   C222      1.55526      .   S
    C226   C214      1.49129      .   S
    C226   H21       1.10155  1_554   S
    C226   H25       1.09965  1_554   S
    C223   H18       1.09581      .   S
    C223   N370      1.45423      .   S
    C223   C219      1.53849  1_554   S
    C221   H16       1.09581      .   S
    C221   N368      1.45423      .   S
    C221   C217      1.53849  1_554   S
    C224   H19       1.09578      .   S
    C224   N371      1.45411      .   S
    C224   C220      1.53808  1_554   S
    C222   H17       1.09579      .   S
    C222   N369      1.45411      .   S
    C222   C218      1.53808  1_554   S
    C287   O427      1.29223      .   S
    C287   O429      1.25062  1_655   S
    C287   C291      1.53857  1_554   S
    C285   O425      1.29223      .   S
    C285   O431      1.25100      .   S
    C285   C289      1.53857  1_554   S
    C286   O426      1.29244      .   S
    C286   O428      1.25023  1_655   S
    C286   C290      1.53828  1_554   S
    C284   O424      1.29242      .   S
    C284   O430      1.25061      .   S
    C284   C288      1.53829  1_554   S
    H56    N368      1.03726      .   S
    H58    N370      1.03724      .   S
    H57    N369      1.03751      .   S
    H59    N371      1.03753      .   S
    N370   C118      1.34685      .   S
    N368   C116      1.34685      .   S
    N371   C119      1.34708      .   S
    N369   C117      1.34708      .   S
    H14    C211      1.08468      .   S
    H12    C209      1.08468      .   S
    H13    C210      1.08404      .   S
    H15    C212      1.08406      .   S
    C213   C209      1.37757      .   S
    C213   N356      1.39071      .   S
    C215   C211      1.37755      .   S
    C215   N358      1.39072      .   S
    C214   C210      1.37728      .   S
    C214   N357      1.39030      .   S
    C216   C212      1.37727      .   S
    C216   N359      1.39031      .   S
    C211   N354      1.38538      .   S
    C209   N352      1.38538      .   S
    C212   N355      1.38498      .   S
    C210   N353      1.38498      .   S
    C118   O414      1.25613      .   S
    C118   C231      1.52459      .   S
    C116   O412      1.25613      .   S
    C116   C229      1.52459      .   S
    C119   O415      1.25576      .   S
    C119   C232      1.52449      .   S
    C117   O413      1.25576      .   S
    C117   C230      1.52449      .   S
    N358   C207      1.35097      .   S
    N356   C205      1.35096      .   S
    N359   C208      1.35155      .   S
    N357   C206      1.35155      .   S
    H184   C331      1.08193      .   S
    H182   C329      1.08193      .   S
    H183   C330      1.08197      .   S
    H181   C328      1.08196      .   S
    H35    C232      1.10099      .   S
    H33    C230      1.10099      .   S
    H34    C231      1.10107      .   S
    H32    C229      1.10108      .   S
    H42    N362      1.02945      .   S
    H40    N360      1.02947      .   S
    H37    N361      1.02704      .   S
    H39    N363      1.02702      .   S
    H43    N363      1.02914      .   S
    H41    N361      1.02913      .   S
    H38    N362      1.02745      .   S
    H36    N360      1.02745      .   S
    N352   C205      1.34796      .   S
    N354   C207      1.34796      .   S
    N353   C206      1.34797      .   S
    N355   C208      1.34797      .   S
    H102   N378      1.04094      .   S
    H100   N376      1.04094      .   S
    C229   H28       1.10296      .   S
    C229   C233      1.52459      .   S
    C231   H30       1.10296      .   S
    C231   C235      1.52459      .   S
    H103   N379      1.04103      .   S
    H101   N377      1.04101      .   S
    C232   H31       1.10287      .   S
    C232   C236      1.52471      .   S
    C230   H29       1.10287      .   S
    C230   C234      1.52471      .   S
    C207   H10       1.08506      .   S
    C205   H8        1.08505      .   S
    C208   H11       1.08505      .   S
    C206   H9        1.08506      .   S
    N362   C235      1.49015      .   S
    N360   C233      1.49017      .   S
    N363   C236      1.49032      .   S
    N361   C234      1.49032      .   S
    H175   C326      1.09953      .   S
    H173   C324      1.09953      .   S
    H174   C325      1.09947      .   S
    H176   C327      1.09947      .   S
    C331   N381      1.34540      .   S
    C331   N391      1.35408      .   S
    C329   N383      1.34500  1_455   S
    C329   N389      1.35408      .   S
    C330   N380      1.34549      .   S
    C330   N390      1.35414      .   S
    C328   N382      1.34508  1_455   S
    C328   N199      1.35414      .   S
    N383   C311      1.38434      .   S
    N381   C309      1.38434      .   S
    N382   C310      1.38431      .   S
    N380   C308      1.38431      .   S
    N378   C326      1.48260      .   S
    N378   H106      1.02787      .   S
    N376   C324      1.48261      .   S
    N376   H104      1.02787      .   S
    N377   C325      1.48288      .   S
    N377   H105      1.02791      .   S
    N379   C327      1.48288      .   S
    N379   H107      1.02791      .   S
    C233   H48       1.09717      .   S
    C233   H44       1.09646      .   S
    C235   H50       1.09719      .   S
    C235   H46       1.09646      .   S
    C234   H49       1.09648      .   S
    C234   H45       1.09622      .   S
    C236   H51       1.09718      .   S
    C236   H47       1.09623      .   S
    C326   H179      1.09721      .   S
    C326   C334      1.52856      .   S
    C324   H177      1.09720      .   S
    C324   C332      1.52857      .   S
    C325   H178      1.09736      .   S
    C325   C333      1.52893      .   S
    C327   H180      1.09736      .   S
    C327   C335      1.52894      .   S
    N391   C305      1.39464      .   S
    N389   C307      1.39433  1_455   S
    N390   C304      1.39478      .   S
    N199   C306      1.39447  1_455   S
    H185   C332      1.09887      .   S
    H187   C334      1.09887      .   S
    H186   C333      1.09889      .   S
    H188   C335      1.09888      .   S
    C308   C304      1.37724      .   S
    C308   H157      1.08518      .   S
    C310   C306      1.37725      .   S
    C310   H159      1.08518      .   S
    C311   C307      1.37729      .   S
    C311   H160      1.08523      .   S
    C309   C305      1.37729      .   S
    C309   H158      1.08522      .   S
    C334   C342      1.52349      .   S
    C334   H191      1.10467      .   S
    C332   C340      1.52349      .   S
    C332   H189      1.10467      .   S
    C335   C343      1.52362      .   S
    C335   H84       1.10456      .   S
    C333   C341      1.52362      .   S
    C333   H190      1.10457      .   S
    C307   C339      1.49289      .   S
    C305   C337      1.49289      .   S
    C306   C338      1.49315      .   S
    C304   C336      1.49315      .   S
    O419   C248      1.24914      .   S
    O417   C246      1.24915      .   S
    O418   C247      1.24924      .   S
    O416   C245      1.24923      .   S
    C340   N396      1.35803      .   S
    C340   O446      1.24455      .   S
    C342   N398      1.35803      .   S
    C342   O444      1.24416      .   S
    C341   N397      1.35846      .   S
    C341   O447      1.24452      .   S
    C343   N399      1.35846      .   S
    C343   O445      1.24415      .   S
    H170   N397      1.03368      .   S
    H172   N399      1.03368      .   S
    H171   N398      1.03379      .   S
    H169   N396      1.03379      .   S
    O409   C246      1.29628      .   S
    O411   C248      1.29629      .   S
    O408   C245      1.29637      .   S
    O410   C247      1.29637      .   S
    N398   C316      1.45422      .   S
    N396   C318      1.45455      .   S
    N399   C317      1.45439      .   S
    N397   C319      1.45472      .   S
    C246   C250      1.54529      .   S
    C248   C252      1.54529      .   S
    C245   C249      1.54555      .   S
    C247   C251      1.54555      .   S
    H165   C316      1.09700  1_455   S
    H167   C318      1.09700      .   S
    H166   C317      1.09702  1_455   S
    H168   C319      1.09701      .   S
    C339   C316      1.54552      .   S
    C339   H202      1.09868  1_655   S
    C339   H200      1.10178      .   S
    C337   C318      1.54552      .   S
    C337   H204      1.09907      .   S
    C337   H86       1.10180      .   S
    C338   C317      1.54555  1_545   S
    C338   H201      1.09866  1_655   S
    C338   H87       1.10171      .   S
    C336   C319      1.54555  1_545   S
    C336   H203      1.09905      .   S
    C336   H85       1.10173      .   S
    C316   C314      1.54589      .   S
    C318   C312      1.54594      .   S
    C317   C315      1.54568      .   S
    C319   C313      1.54573      .   S
    H92    C264      1.10170      .   S
    H94    C266      1.10170      .   S
    H93    C265      1.10171      .   S
    H95    C267      1.10170      .   S
    H96    C264      1.09938      .   S
    H98    C266      1.09938      .   S
    H97    C265      1.09932      .   S
    H99    C267      1.09930      .   S
    C252   C266      1.54473      .   S
    C252   H63       1.09694      .   S
    C252   N375      1.45475      .   S
    C250   C264      1.54473      .   S
    C250   H61       1.09694      .   S
    C250   N373      1.45474      .   S
    C251   C267      1.54559  1_545   S
    C251   H62       1.09695      .   S
    C251   N374      1.45477      .   S
    C249   C265      1.54557  1_545   S
    C249   H60       1.09693      .   S
    C249   N372      1.45478      .   S
    C266   C239      1.49312      .   S
    C264   C237      1.49312      .   S
    C265   C238      1.49314      .   S
    C267   C240      1.49313      .   S
    C314   O434      1.29650      .   S
    C314   O440      1.24852  1_655   S
    C312   O432      1.29648      .   S
    C312   O442      1.24888      .   S
    C315   O435      1.29642      .   S
    C315   O441      1.24857  1_655   S
    C313   O433      1.29640      .   S
    C313   O443      1.24895      .   S
    O421   C269      1.24490      .   S
    O423   C271      1.24490      .   S
    O422   C270      1.24450      .   S
    O420   C268      1.24448      .   S
    N373   H65       1.03338      .   S
    N373   C269      1.35840      .   S
    N375   H67       1.03336      .   S
    N375   C271      1.35840      .   S
    N372   H64       1.03353      .   S
    N372   C268      1.35798      .   S
    N374   H66       1.03353      .   S
    N374   C270      1.35798      .   S
    H91    C263      1.10448      .   S
    H89    C261      1.10448      .   S
    H90    C262      1.10464      .   S
    H88    C260      1.10463      .   S
    C269   C261      1.52298      .   S
    C271   C263      1.52298      .   S
    C268   C260      1.52317      .   S
    C270   C262      1.52316      .   S
    H54    C243      1.08532      .   S
    H52    C241      1.08532      .   S
    H55    C244      1.08534      .   S
    H53    C242      1.08536      .   S
    C237   C241      1.37709      .   S
    C237   N364      1.39489      .   S
    C239   C243      1.37711      .   S
    C239   N366      1.39489      .   S
    C238   C242      1.37716      .   S
    C238   N365      1.39490      .   S
    C240   C244      1.37719      .   S
    C240   N367      1.39490      .   S
    C263   H83       1.09891      .   S
    C263   C255      1.52886      .   S
    C261   H81       1.09892      .   S
    C261   C253      1.52885      .   S
    C262   H82       1.09887      .   S
    C262   C254      1.52843      .   S
    C260   H80       1.09887      .   S
    C260   C120      1.52843      .   S
    C243   N350      1.38399      .   S
    C241   N348      1.38399      .   S
    C242   N349      1.38404      .   S
    C244   N351      1.38404      .   S
    H151   C302      1.09640      .   S
    H149   C300      1.09639      .   S
    H152   C303      1.09629      .   S
    H150   C301      1.09630      .   S
    H73    C253      1.09732      .   S
    H75    C255      1.09732      .   S
    H72    C120      1.09723      .   S
    H74    C254      1.09723      .   S
    H154   C301      1.09710      .   S
    H156   C303      1.09712      .   S
    H153   C300      1.09717      .   S
    H155   C302      1.09716      .   S
    H5     N345      1.02794      .   S
    H7     N347      1.02795      .   S
    H4     N344      1.02794      .   S
    H6     N346      1.02795      .   S
    N366   C258      1.35417      .   S
    N364   C256      1.35417      .   S
    N367   C259      1.35426      .   S
    N365   C257      1.35426      .   S
    C253   N345      1.48253      .   S
    C253   H69       1.09958      .   S
    C255   N347      1.48253      .   S
    C255   H71       1.09956      .   S
    C254   N346      1.48257      .   S
    C254   H70       1.09960      .   S
    C120   N344      1.48257      .   S
    C120   H68       1.09960      .   S
    H111   C275      1.08502      .   S
    H109   C273      1.08502      .   S
    H110   C274      1.08536      .   S
    H108   C272      1.08537      .   S
    C303   N198      1.49016      .   S
    C303   C299      1.52427      .   S
    C301   N196      1.49016      .   S
    C301   C297      1.52427      .   S
    C302   N197      1.49035      .   S
    C302   C298      1.52404      .   S
    C300   N195      1.49035      .   S
    C300   C296      1.52404      .   S
    H136   C299      1.10298      .   S
    H134   C297      1.10298      .   S
    H133   C296      1.10292      .   S
    H135   C298      1.10292      .   S
    N347   H3        1.04115      .   S
    N345   H1        1.04114      .   S
    N344   H0        1.04100      .   S
    N346   H2        1.04101      .   S
    N350   C258      1.34578      .   S
    N348   C256      1.34576      .   S
    N351   C259      1.34570      .   S
    N349   C257      1.34570      .   S
    C258   H78       1.08233      .   S
    C256   H76       1.08233      .   S
    C257   H77       1.08209      .   S
    C259   H79       1.08209      .   S
    N196   H142      1.02739      .   S
    N196   H146      1.02951      .   S
    N198   H144      1.02737      .   S
    N198   H148      1.02953      .   S
    N197   H143      1.02716      .   S
    N197   H147      1.02937      .   S
    N195   H141      1.02716      .   S
    N195   H145      1.02937      .   S
    C275   N385      1.34824      .   S
    C275   N194      1.35133      .   S
    C273   N387      1.34780  1_455   S
    C273   N192      1.35133      .   S
    C274   N384      1.34740      .   S
    C274   N193      1.35057      .   S
    C272   N386      1.34696  1_455   S
    C272   N388      1.35058      .   S
    C299   H140      1.10096      .   S
    C299   C323      1.52453      .   S
    C297   H138      1.10095      .   S
    C297   C321      1.52453      .   S
    C298   H139      1.10095      .   S
    C298   C322      1.52408      .   S
    C296   H137      1.10094      .   S
    C296   C320      1.52410      .   S
    N384   C276      1.38940      .   S
    N386   C278      1.38940      .   S
    N385   C277      1.38524      .   S
    N387   C279      1.38524      .   S
    O437   C323      1.25614      .   S
    O439   C321      1.25655      .   S
    O436   C322      1.25598      .   S
    O438   C320      1.25638      .   S
    N194   C281      1.39063      .   S
    N192   C283      1.39031  1_455   S
    C321   N393      1.34673      .   S
    C323   N395      1.34673      .   S
    N193   C280      1.39125      .   S
    N388   C282      1.39092  1_455   S
    C322   N394      1.34585      .   S
    C320   N392      1.34585      .   S
    C277   C281      1.37749      .   S
    C277   H113      1.08400      .   S
    C279   C283      1.37749      .   S
    C279   H115      1.08398      .   S
    C276   C280      1.37758      .   S
    C276   H112      1.08428      .   S
    C278   C282      1.37758      .   S
    C278   H114      1.08428      .   S
    C283   C295      1.49228      .   S
    C281   C293      1.49228      .   S
    C282   C294      1.49273      .   S
    C280   C292      1.49273      .   S
    N393   H162      1.03730      .   S
    N393   C289      1.45410      .   S
    N395   H164      1.03732      .   S
    N395   C291      1.45410      .   S
    N394   H163      1.03741      .   S
    N394   C290      1.45488      .   S
    N392   H161      1.03743      .   S
    N392   C288      1.45488      .   S
    O406   C219      1.25128      .   S
    O404   C217      1.25128      .   S
    O407   C220      1.25044      .   S
    O405   C218      1.25045      .   S
    H124   C289      1.09588      .   S
    H122   C291      1.09548  1_455   S
    H123   C288      1.09585      .   S
    H121   C290      1.09545  1_455   S
    O400   C217      1.29225      .   S
    O402   C219      1.29227      .   S
    O403   C220      1.29246      .   S
    O401   C218      1.29246      .   S
    C291   C295      1.55610      .   S
    C289   C293      1.55610      .   S
    C288   C292      1.55538      .   S
    C290   C294      1.55538      .   S
