# CIF file generated by openbabel 2.4.90, see http://openbabel.sf.net
data_I
_chemical_name_common ''
_cell_length_a 18.463
_cell_length_b 21.015
_cell_length_c 15.668
_cell_angle_alpha 94.029
_cell_angle_beta 89.958
_cell_angle_gamma 89.91
_space_group_name_H-M_alt 'P 1'
_space_group_name_Hall 'P 1'
loop_
    _symmetry_equiv_pos_as_xyz
    x,y,z
loop_
    _atom_site_label
    _atom_site_type_symbol
    _atom_site_fract_x
    _atom_site_fract_y
    _atom_site_fract_z
    _atom_site_occupancy
    Zn0     Zn   0.13119   0.53568   0.29644   1.000
    Zn1     Zn   0.63120   0.03591   0.29640   1.000
    Zn2     Zn   0.63121   0.53568   0.29644   1.000
    Zn3     Zn   0.37830   0.18585   0.18184   1.000
    Zn4     Zn   0.37832   0.68590   0.18199   1.000
    Zn5     Zn   0.87832   0.18585   0.18184   1.000
    Zn6     Zn   0.87834   0.68590   0.18199   1.000
    Zn7     Zn   0.38116   0.46611   0.70646   1.000
    Zn8     Zn   0.38124   0.96609   0.70659   1.000
    Zn9     Zn   0.88117   0.46611   0.70646   1.000
    Zn10    Zn   0.88125   0.96609   0.70659   1.000
    Zn11    Zn   0.12832   0.31443   0.81839   1.000
    Zn12    Zn   0.12853   0.81423   0.81839   1.000
    Zn13    Zn   0.62834   0.31443   0.81839   1.000
    Zn14    Zn   0.62854   0.81423   0.81839   1.000
    Zn15    Zn   0.13118   0.03591   0.29640   1.000
