# CIF file generated by openbabel 2.4.90, see http://openbabel.sf.net
data_I
_chemical_name_common ''
_cell_length_a 18.463
_cell_length_b 21.015
_cell_length_c 15.668
_cell_angle_alpha 94.029
_cell_angle_beta 89.958
_cell_angle_gamma 89.91
_space_group_name_H-M_alt 'P 1'
_space_group_name_Hall 'P 1'
loop_
    _symmetry_equiv_pos_as_xyz
    x,y,z
loop_
    _atom_site_label
    _atom_site_type_symbol
    _atom_site_fract_x
    _atom_site_fract_y
    _atom_site_fract_z
    _atom_site_occupancy
    Zr0     Zr   0.13118   0.03591   0.29640   1.000
    Zr1     Zr   0.13119   0.53568   0.29644   1.000
    Zr2     Zr   0.63120   0.03591   0.29640   1.000
    Zr3     Zr   0.63121   0.53568   0.29644   1.000
    Zr4     Zr   0.37830   0.18585   0.18184   1.000
    Zr5     Zr   0.37832   0.68590   0.18199   1.000
    Zr6     Zr   0.87832   0.18585   0.18184   1.000
    Zr7     Zr   0.87834   0.68590   0.18199   1.000
    Zr8     Zr   0.38116   0.46611   0.70646   1.000
    Zr9     Zr   0.38124   0.96609   0.70659   1.000
    Zr10    Zr   0.88117   0.46611   0.70646   1.000
    Zr11    Zr   0.88125   0.96609   0.70659   1.000
    Zr12    Zr   0.12832   0.31443   0.81839   1.000
    Zr13    Zr   0.12853   0.81423   0.81839   1.000
    Zr14    Zr   0.62834   0.31443   0.81839   1.000
    Zr15    Zr   0.62854   0.81423   0.81839   1.000
    N16     N    0.68458   0.25607   0.13935   1.000
    O17     O    0.75790   0.20905   0.15695   1.000
    O18     O    0.65629   0.37292   0.20188   1.000
    O19     O    0.66260   0.27885   0.00762   1.000
    O20     O    0.67314   0.15683   0.19679   1.000
    N21     N    0.43440   0.74449   0.86108   1.000
    O22     O    0.42315   0.84424   0.80469   1.000
    O23     O    0.50789   0.79127   0.84345   1.000
    O24     O    0.40604   0.62824   0.79943   1.000
    O25     O    0.41249   0.72147   0.99271   1.000
    N26     N    0.43479   0.24485   0.86155   1.000
    O27     O    0.42332   0.34456   0.80489   1.000
    O28     O    0.50803   0.29164   0.84380   1.000
    O29     O    0.40636   0.12839   0.79981   1.000
    O30     O    0.41272   0.22166   0.99290   1.000
    N31     N    0.93480   0.24485   0.86155   1.000
    O32     O    0.92333   0.34456   0.80489   1.000
    O33     O    0.00802   0.29164   0.84380   1.000
    O34     O    0.91273   0.22166   0.99290   1.000
    O35     O    0.90637   0.12839   0.79981   1.000
    N36     N    0.93441   0.74449   0.86108   1.000
    O37     O    0.92316   0.84424   0.80469   1.000
    O38     O    0.00789   0.79127   0.84345   1.000
    O39     O    0.91250   0.72147   0.99271   1.000
    O40     O    0.90605   0.62824   0.79943   1.000
    N41     N    0.18456   0.25607   0.13935   1.000
    O42     O    0.25788   0.20905   0.15695   1.000
    O43     O    0.15628   0.37292   0.20188   1.000
    O44     O    0.16259   0.27885   0.00762   1.000
    O45     O    0.17313   0.15683   0.19679   1.000
    N46     N    0.19135   0.03598   0.62319   1.000
    O47     O    0.26203   0.98996   0.66255   1.000
    O48     O    0.15229   0.15495   0.70184   1.000
    O49     O    0.16990   0.03391   0.48900   1.000
    O50     O    0.17607   0.93719   0.70224   1.000
    N51     N    0.68381   0.75640   0.14028   1.000
    O52     O    0.75749   0.70929   0.15761   1.000
    O53     O    0.65581   0.87320   0.20242   1.000
    O54     O    0.66226   0.77896   0.00814   1.000
    O55     O    0.67279   0.65691   0.19737   1.000
    N56     N    0.69137   0.03598   0.62319   1.000
    O57     O    0.76204   0.98996   0.66255   1.000
    O58     O    0.65230   0.15495   0.70184   1.000
    O59     O    0.66991   0.03391   0.48900   1.000
    O60     O    0.67608   0.93719   0.70224   1.000
    N61     N    0.44078   0.96429   0.37859   1.000
    O62     O    0.42555   0.06315   0.29910   1.000
    O63     O    0.51165   0.01105   0.33974   1.000
    O64     O    0.40205   0.84538   0.29938   1.000
    O65     O    0.41962   0.96681   0.51323   1.000
    N66     N    0.44078   0.46433   0.37786   1.000
    O67     O    0.42556   0.56312   0.29876   1.000
    O68     O    0.51162   0.51089   0.33930   1.000
    O69     O    0.40198   0.34543   0.29874   1.000
    O70     O    0.41960   0.46681   0.51281   1.000
    N71     N    0.94078   0.96429   0.37859   1.000
    O72     O    0.92556   0.06315   0.29910   1.000
    O73     O    0.01165   0.01105   0.33974   1.000
    O74     O    0.90206   0.84538   0.29938   1.000
    O75     O    0.91963   0.96681   0.51323   1.000
    N76     N    0.94079   0.46433   0.37786   1.000
    O77     O    0.92556   0.56312   0.29876   1.000
    O78     O    0.01162   0.51089   0.33930   1.000
    O79     O    0.90199   0.34543   0.29874   1.000
    O80     O    0.91961   0.46681   0.51281   1.000
    N81     N    0.18379   0.75640   0.14028   1.000
    O82     O    0.25747   0.70929   0.15761   1.000
    O83     O    0.15580   0.87320   0.20242   1.000
    O84     O    0.16225   0.77896   0.00814   1.000
    O85     O    0.17278   0.65691   0.19737   1.000
    N86     N    0.69150   0.53607   0.62248   1.000
    O87     O    0.76208   0.48998   0.66213   1.000
    O88     O    0.65257   0.65497   0.70125   1.000
    O89     O    0.66999   0.53386   0.48864   1.000
    O90     O    0.67606   0.43729   0.70186   1.000
    N91     N    0.19148   0.53607   0.62248   1.000
    O92     O    0.26206   0.48998   0.66213   1.000
    O93     O    0.15255   0.65497   0.70125   1.000
    O94     O    0.16998   0.53386   0.48864   1.000
    O95     O    0.17605   0.43729   0.70186   1.000
loop_
    _geom_bond_atom_site_label_1
    _geom_bond_atom_site_label_2
    _geom_bond_distance
    _geom_bond_site_symmetry_2
    _ccdc_geom_bond_type
    N16    O17       1.70872      .   S
    Zr6    O17       2.31456      .   S
    N16    O18       2.63060      .   S
    Zr3    O18       3.65940      .   S
    N16    O19       2.18932      .   S
    Zr14   O19       3.17217  1_556   S
    N16    O20       2.33855      .   S
    Zr2    O20       3.17082      .   S
    N21    O22       2.34040      .   S
    Zr9    O22       3.17271      .   S
    N21    O23       1.71039      .   S
    Zr15   O23       2.31901      .   S
    N21    O24       2.61699      .   S
    Zr8    O24       3.64018      .   S
    N21    O25       2.18873      .   S
    Zr5    O25       3.17209  1_554   S
    N26    O27       2.34182      .   S
    Zr8    O27       3.17145      .   S
    N26    O28       1.70717      .   S
    Zr14   O28       2.31320      .   S
    N26    O29       2.62163      .   S
    Zr9    O29       3.64519  1_565   S
    N26    O30       2.18622      .   S
    Zr4    O30       3.16934  1_554   S
    N31    O32       2.34181      .   S
    Zr10   O32       3.17144      .   S
    N31    O33       1.70704  1_655   S
    Zr12   O33       2.31302      .   S
    N31    O34       2.18621      .   S
    Zr6    O34       3.16933  1_554   S
    N31    O35       2.62162      .   S
    Zr11   O35       3.64518  1_565   S
    N36    O37       2.34039      .   S
    Zr11   O37       3.17269      .   S
    N36    O38       1.71025  1_655   S
    Zr13   O38       2.31884      .   S
    N36    O39       2.18872      .   S
    Zr7    O39       3.17208  1_554   S
    N36    O40       2.61698      .   S
    Zr10   O40       3.64017      .   S
    N41    O42       1.70872      .   S
    Zr4    O42       2.31456      .   S
    N41    O43       2.63060      .   S
    Zr1    O43       3.65940      .   S
    N41    O44       2.18932      .   S
    Zr12   O44       3.17217  1_556   S
    N41    O45       2.33855      .   S
    Zr0    O45       3.17082      .   S
    N46    O47       1.76048  1_545   S
    Zr9    O47       2.37063      .   S
    N46    O48       2.80164      .   S
    Zr12   O48       3.72779      .   S
    N46    O49       2.13713      .   S
    Zr0    O49       3.10485      .   S
    N46    O50       2.50742  1_545   S
    Zr13   O50       3.38000      .   S
    N51    O52       1.71423      .   S
    Zr7    O52       2.32164      .   S
    N51    O53       2.62665      .   S
    Zr2    O53       3.65429  1_545   S
    N51    O54       2.19283      .   S
    Zr15   O54       3.17591  1_556   S
    N51    O55       2.34018      .   S
    Zr3    O55       3.16995      .   S
    N56    O57       1.76048  1_545   S
    Zr11   O57       2.37063      .   S
    N56    O58       2.80164      .   S
    Zr14   O58       3.72779      .   S
    N56    O59       2.13713      .   S
    Zr2    O59       3.10485      .   S
    N56    O60       2.50742  1_545   S
    Zr15   O60       3.37999      .   S
    N61    O62       2.51160  1_565   S
    Zr4    O62       3.38338      .   S
    N61    O63       1.77068  1_565   S
    Zr2    O63       2.37847      .   S
    N61    O64       2.80468      .   S
    Zr5    O64       3.73462      .   S
    N61    O65       2.14212      .   S
    Zr9    O65       3.11191      .   S
    N66    O67       2.50704      .   S
    Zr5    O67       3.37995      .   S
    N66    O68       1.76610      .   S
    Zr3    O68       2.37650      .   S
    N66    O69       2.80443      .   S
    Zr4    O69       3.73298      .   S
    N66    O70       2.14693      .   S
    Zr8    O70       3.11657      .   S
    N71    O72       2.51159  1_565   S
    Zr6    O72       3.38336      .   S
    N71    O73       1.77056  1_665   S
    Zr0    O73       2.37831      .   S
    N71    O74       2.80466      .   S
    Zr7    O74       3.73462      .   S
    N71    O75       2.14211      .   S
    Zr11   O75       3.11189      .   S
    N76    O77       2.50703      .   S
    Zr7    O77       3.37993      .   S
    N76    O78       1.76597  1_655   S
    Zr1    O78       2.37634      .   S
    N76    O79       2.80441      .   S
    Zr6    O79       3.73297      .   S
    N76    O80       2.14692      .   S
    Zr10   O80       3.11656      .   S
    N81    O82       1.71423      .   S
    Zr5    O82       2.32164      .   S
    N81    O83       2.62665      .   S
    Zr0    O83       3.65430  1_545   S
    N81    O84       2.19281      .   S
    Zr13   O84       3.17588  1_556   S
    N81    O85       2.34019      .   S
    Zr1    O85       3.16997      .   S
    N86    O87       1.76186      .   S
    Zr10   O87       2.36999      .   S
    N86    O88       2.80053      .   S
    Zr15   O88       3.72791      .   S
    N86    O89       2.13179      .   S
    Zr3    O89       3.09872      .   S
    N86    O90       2.51038      .   S
    Zr14   O90       3.38285      .   S
    N91    O92       1.76186      .   S
    Zr8    O92       2.36998      .   S
    N91    O93       2.80053      .   S
    Zr13   O93       3.72791      .   S
    N91    O94       2.13179      .   S
    Zr1    O94       3.09872      .   S
    N91    O95       2.51038      .   S
    Zr12   O95       3.38285      .   S
