# CIF file generated by openbabel 2.4.90, see http://openbabel.sf.net
data_I
_chemical_name_common ''
_cell_length_a 18.463
_cell_length_b 21.015
_cell_length_c 15.668
_cell_angle_alpha 94.029
_cell_angle_beta 89.958
_cell_angle_gamma 89.91
_space_group_name_H-M_alt 'P 1'
_space_group_name_Hall 'P 1'
loop_
    _symmetry_equiv_pos_as_xyz
    x,y,z
loop_
    _atom_site_label
    _atom_site_type_symbol
    _atom_site_fract_x
    _atom_site_fract_y
    _atom_site_fract_z
    _atom_site_occupancy
    N0      N    0.68458   0.25607   0.13935   1.000
    N1      N    0.43440   0.74449   0.86108   1.000
    N2      N    0.43479   0.24485   0.86155   1.000
    N3      N    0.93480   0.24485   0.86155   1.000
    N4      N    0.93441   0.74449   0.86108   1.000
    N5      N    0.18456   0.25607   0.13935   1.000
    N6      N    0.19135   0.03598   0.62319   1.000
    N7      N    0.68381   0.75640   0.14028   1.000
    N8      N    0.69137   0.03598   0.62319   1.000
    N9      N    0.44078   0.96429   0.37859   1.000
    N10     N    0.44078   0.46433   0.37786   1.000
    N11     N    0.94078   0.96429   0.37859   1.000
    N12     N    0.94079   0.46433   0.37786   1.000
    N13     N    0.18379   0.75640   0.14028   1.000
    N14     N    0.69150   0.53607   0.62248   1.000
    N15     N    0.19148   0.53607   0.62248   1.000
    Zr16    Zr   0.88117   0.46611   0.70646   1.000
    O17     O    0.82162   0.47804   0.68429   1.000
    O18     O    0.89361   0.54717   0.75295   1.000
    O19     O    0.90039   0.46646   0.60963   1.000
    O20     O    0.90225   0.40533   0.75567   1.000
    Zr21    Zr   0.13118   0.03591   0.29640   1.000
    O22     O    0.07141   0.02348   0.31807   1.000
    O23     O    0.14349   0.95455   0.24941   1.000
    O24     O    0.15216   0.09637   0.24660   1.000
    O25     O    0.15054   0.03491   0.39270   1.000
    Zr26    Zr   0.37830   0.18585   0.18184   1.000
    O27     O    0.40193   0.12450   0.24047   1.000
    O28     O    0.31809   0.19745   0.16940   1.000
    O29     O    0.39551   0.20376   0.08737   1.000
    O30     O    0.39014   0.26564   0.24029   1.000
    Zr31    Zr   0.38116   0.46611   0.70646   1.000
    O32     O    0.39360   0.54717   0.75295   1.000
    O33     O    0.40224   0.40533   0.75567   1.000
    O34     O    0.32161   0.47804   0.68429   1.000
    O35     O    0.40038   0.46646   0.60963   1.000
    Zr36    Zr   0.62834   0.31443   0.81839   1.000
    O37     O    0.64032   0.23469   0.76012   1.000
    O38     O    0.64547   0.29664   0.91301   1.000
    O39     O    0.65220   0.37586   0.76013   1.000
    O40     O    0.56818   0.30303   0.83109   1.000
    Zr41    Zr   0.38124   0.96609   0.70659   1.000
    O42     O    0.40219   0.90517   0.75564   1.000
    O43     O    0.40043   0.96645   0.60991   1.000
    O44     O    0.39380   0.04724   0.75320   1.000
    O45     O    0.32163   0.97803   0.68457   1.000
    Zr46    Zr   0.13119   0.53568   0.29644   1.000
    O47     O    0.07141   0.52329   0.31787   1.000
    O48     O    0.15199   0.59630   0.24691   1.000
    O49     O    0.14374   0.45430   0.24916   1.000
    O50     O    0.15059   0.53477   0.39254   1.000
    Zr51    Zr   0.63120   0.03591   0.29640   1.000
    O52     O    0.65055   0.03491   0.39270   1.000
    O53     O    0.57142   0.02348   0.31807   1.000
    O54     O    0.65217   0.09637   0.24660   1.000
    O55     O    0.64351   0.95455   0.24941   1.000
    Zr56    Zr   0.87832   0.18585   0.18184   1.000
    O57     O    0.90194   0.12450   0.24047   1.000
    O58     O    0.89015   0.26564   0.24029   1.000
    O59     O    0.89552   0.20376   0.08737   1.000
    O60     O    0.81811   0.19745   0.16940   1.000
    Zr61    Zr   0.63121   0.53568   0.29644   1.000
    O62     O    0.57141   0.52329   0.31787   1.000
    O63     O    0.65200   0.59630   0.24691   1.000
    O64     O    0.64375   0.45430   0.24916   1.000
    O65     O    0.65060   0.53477   0.39254   1.000
    Zr66    Zr   0.87834   0.68590   0.18199   1.000
    O67     O    0.89020   0.76564   0.24069   1.000
    O68     O    0.90195   0.62451   0.24037   1.000
    O69     O    0.89542   0.70368   0.08735   1.000
    O70     O    0.81791   0.69759   0.16980   1.000
    Zr71    Zr   0.37832   0.68590   0.18199   1.000
    O72     O    0.40194   0.62451   0.24037   1.000
    O73     O    0.39541   0.70368   0.08735   1.000
    O74     O    0.39019   0.76564   0.24069   1.000
    O75     O    0.31790   0.69759   0.16980   1.000
    Zr76    Zr   0.12853   0.81423   0.81839   1.000
    O77     O    0.14539   0.79660   0.91326   1.000
    O78     O    0.06821   0.80275   0.83092   1.000
    O79     O    0.14054   0.73460   0.75982   1.000
    O80     O    0.15230   0.87571   0.76032   1.000
    Zr81    Zr   0.12832   0.31443   0.81839   1.000
    O82     O    0.06817   0.30303   0.83109   1.000
    O83     O    0.14546   0.29664   0.91301   1.000
    O84     O    0.15219   0.37586   0.76013   1.000
    O85     O    0.14031   0.23469   0.76012   1.000
    Zr86    Zr   0.88125   0.96609   0.70659   1.000
    O87     O    0.82165   0.97803   0.68457   1.000
    O88     O    0.90044   0.96645   0.60991   1.000
    O89     O    0.89381   0.04724   0.75320   1.000
    O90     O    0.90220   0.90517   0.75564   1.000
    Zr91    Zr   0.62854   0.81423   0.81839   1.000
    O92     O    0.65231   0.87571   0.76032   1.000
    O93     O    0.64540   0.79660   0.91326   1.000
    O94     O    0.56822   0.80275   0.83092   1.000
    O95     O    0.64055   0.73460   0.75982   1.000
loop_
    _geom_bond_atom_site_label_1
    _geom_bond_atom_site_label_2
    _geom_bond_distance
    _geom_bond_site_symmetry_2
    _ccdc_geom_bond_type
    Zr16   O17       1.18499      .   S
    N14    O17       2.89097      .   S
    Zr16   O18       1.82008      .   S
    N4     O18       4.43362      .   S
    Zr16   O19       1.55828      .   S
    N12    O19       3.70384      .   S
    Zr16   O20       1.58572      .   S
    N3     O20       3.90752      .   S
    Zr21   O22       1.18915      .   S
    N11    O22       2.90436  1_665   S
    Zr21   O23       1.82715  1_545   S
    N13    O23       4.45041      .   S
    Zr21   O24       1.58541      .   S
    N5     O24       3.90408      .   S
    Zr21   O25       1.55242      .   S
    N6     O25       3.68810      .   S
    Zr26   O27       1.69169      .   S
    N9     O27       4.18944  1_565   S
    Zr26   O28       1.15728      .   S
    N5     O28       2.80906      .   S
    Zr26   O29       1.58467      .   S
    N2     O29       3.77068  1_556   S
    Zr26   O30       1.86649      .   S
    N10    O30       4.65885      .   S
    Zr31   O32       1.82009      .   S
    N1     O32       4.43364      .   S
    Zr31   O33       1.58573      .   S
    N2     O33       3.90754      .   S
    Zr31   O34       1.18499      .   S
    N15    O34       2.89097      .   S
    Zr31   O35       1.55829      .   S
    N10    O35       3.70386      .   S
    Zr36   O37       1.86389      .   S
    N8     O37       4.65334      .   S
    Zr36   O38       1.58608      .   S
    N0     O38       3.77516  1_554   S
    Zr36   O39       1.69142      .   S
    N14    O39       4.18806      .   S
    Zr36   O40       1.15660      .   S
    N2     O40       2.80672      .   S
    Zr41   O42       1.58635      .   S
    N1     O42       3.90682      .   S
    Zr41   O43       1.55595      .   S
    N9     O43       3.69672      .   S
    Zr41   O44       1.82259  1_565   S
    N2     O44       4.44082      .   S
    Zr41   O45       1.18531      .   S
    N6     O45       2.89015  1_545   S
    Zr46   O47       1.18817      .   S
    N12    O47       2.89902  1_655   S
    Zr46   O48       1.58498      .   S
    N13    O48       3.90513      .   S
    Zr46   O49       1.82970      .   S
    N5     O49       4.45694      .   S
    Zr46   O50       1.54936      .   S
    N15    O50       3.67969      .   S
    Zr51   O52       1.55242      .   S
    N8     O52       3.68810      .   S
    Zr51   O53       1.18923      .   S
    N9     O53       2.90457  1_565   S
    Zr51   O54       1.58541      .   S
    N0     O54       3.90407      .   S
    Zr51   O55       1.82714  1_545   S
    N7     O55       4.45040      .   S
    Zr56   O57       1.69168      .   S
    N11    O57       4.18943  1_565   S
    Zr56   O58       1.86649      .   S
    N12    O58       4.65883      .   S
    Zr56   O59       1.58466      .   S
    N3     O59       3.77067  1_556   S
    Zr56   O60       1.15728      .   S
    N0     O60       2.80906      .   S
    Zr61   O62       1.18825      .   S
    N10    O62       2.89923      .   S
    Zr61   O63       1.58498      .   S
    N7     O63       3.90511      .   S
    Zr61   O64       1.82970      .   S
    N0     O64       4.45694      .   S
    Zr61   O65       1.54936      .   S
    N14    O65       3.67969      .   S
    Zr66   O67       1.86731      .   S
    N11    O67       4.65994      .   S
    Zr66   O68       1.68997      .   S
    N12    O68       4.18321      .   S
    Zr66   O69       1.58604      .   S
    N4     O69       3.77455  1_556   S
    Zr66   O70       1.16082      .   S
    N7     O70       2.81850      .   S
    Zr71   O72       1.68998      .   S
    N10    O72       4.18323      .   S
    Zr71   O73       1.58605      .   S
    N1     O73       3.77457  1_556   S
    Zr71   O74       1.86731      .   S
    N9     O74       4.65997      .   S
    Zr71   O75       1.16082      .   S
    N13    O75       2.81850      .   S
    Zr76   O77       1.58794      .   S
    N13    O77       3.78050  1_554   S
    Zr76   O78       1.15942      .   S
    N4     O78       2.81317  1_655   S
    Zr76   O79       1.86395      .   S
    N15    O79       4.65238      .   S
    Zr76   O80       1.69000      .   S
    N6     O80       4.18365  1_545   S
    Zr81   O82       1.15651      .   S
    N3     O82       2.80649  1_655   S
    Zr81   O83       1.58608      .   S
    N5     O83       3.77516  1_554   S
    Zr81   O84       1.69142      .   S
    N15    O84       4.18806      .   S
    Zr81   O85       1.86389      .   S
    N6     O85       4.65334      .   S
    Zr86   O87       1.18531      .   S
    N8     O87       2.89015  1_545   S
    Zr86   O88       1.55595      .   S
    N11    O88       3.69670      .   S
    Zr86   O89       1.82259  1_565   S
    N3     O89       4.44081      .   S
    Zr86   O90       1.58635      .   S
    N4     O90       3.90680      .   S
    Zr91   O92       1.69000      .   S
    N8     O92       4.18365  1_545   S
    Zr91   O93       1.58795      .   S
    N7     O93       3.78053  1_554   S
    Zr91   O94       1.15951      .   S
    N1     O94       2.81340      .   S
    Zr91   O95       1.86395      .   S
    N14    O95       4.65237      .   S
