# CIF file generated by openbabel 2.4.90, see http://openbabel.sf.net
data_I
_chemical_name_common ''
_cell_length_a 18.463
_cell_length_b 21.015
_cell_length_c 15.668
_cell_angle_alpha 94.029
_cell_angle_beta 89.958
_cell_angle_gamma 89.91
_space_group_name_H-M_alt 'P 1'
_space_group_name_Hall 'P 1'
loop_
    _symmetry_equiv_pos_as_xyz
    x,y,z
loop_
    _atom_site_label
    _atom_site_type_symbol
    _atom_site_fract_x
    _atom_site_fract_y
    _atom_site_fract_z
    _atom_site_occupancy
    C0      C    0.13118   0.03591   0.29640   1.000
    C1      C    0.13119   0.53568   0.29644   1.000
    C2      C    0.63120   0.03591   0.29640   1.000
    C3      C    0.63121   0.53568   0.29644   1.000
    C4      C    0.37830   0.18585   0.18184   1.000
    C5      C    0.37832   0.68590   0.18199   1.000
    C6      C    0.87832   0.18585   0.18184   1.000
    C7      C    0.87834   0.68590   0.18199   1.000
    C8      C    0.38116   0.46611   0.70646   1.000
    C9      C    0.38124   0.96609   0.70659   1.000
    C10     C    0.88117   0.46611   0.70646   1.000
    C11     C    0.88125   0.96609   0.70659   1.000
    C12     C    0.12832   0.31443   0.81839   1.000
    C13     C    0.12853   0.81423   0.81839   1.000
    C14     C    0.62834   0.31443   0.81839   1.000
    C15     C    0.62854   0.81423   0.81839   1.000
    C16     C    0.06081   0.20682   0.77494   1.000
    C17     C    0.06104   0.70690   0.77342   1.000
    C18     C    0.56082   0.20682   0.77494   1.000
    C19     C    0.56105   0.70690   0.77342   1.000
    C20     C    0.06974   0.24962   0.69202   1.000
    C21     C    0.07066   0.75021   0.69117   1.000
    C22     C    0.56975   0.24962   0.69202   1.000
    C23     C    0.57068   0.75021   0.69117   1.000
    C24     C    0.28980   0.09018   0.28483   1.000
    C25     C    0.28998   0.59000   0.28516   1.000
    C26     C    0.78981   0.09018   0.28483   1.000
    C27     C    0.78999   0.59000   0.28516   1.000
    C28     C    0.12244   0.09055   0.10250   1.000
    C29     C    0.12237   0.59070   0.10325   1.000
    C30     C    0.62245   0.09055   0.10250   1.000
    C31     C    0.62238   0.59070   0.10325   1.000
    C32     C    0.27881   0.26519   0.06792   1.000
    C33     C    0.27790   0.76591   0.06987   1.000
    C34     C    0.77882   0.26519   0.06792   1.000
    C35     C    0.77791   0.76591   0.06987   1.000
    C36     C    0.18743   0.15598   0.98508   1.000
    C37     C    0.18695   0.65672   0.98621   1.000
    C38     C    0.68744   0.15598   0.98508   1.000
    C39     C    0.68696   0.65672   0.98621   1.000
    C40     C    0.28340   0.16255   0.99113   1.000
    C41     C    0.28291   0.66351   0.99215   1.000
    C42     C    0.78341   0.16255   0.99113   1.000
    C43     C    0.78292   0.66351   0.99215   1.000
    C44     C    0.11315   0.28393   0.26737   1.000
    C45     C    0.11026   0.78438   0.26818   1.000
    C46     C    0.61316   0.28393   0.26737   1.000
    C47     C    0.61027   0.78438   0.26818   1.000
    C48     C    0.06596   0.32284   0.18975   1.000
    C49     C    0.06431   0.82352   0.18970   1.000
    C50     C    0.56597   0.32284   0.18975   1.000
    C51     C    0.56432   0.82352   0.18970   1.000
    C52     C    0.07990   0.44275   0.19360   1.000
    C53     C    0.08014   0.94336   0.19303   1.000
    C54     C    0.57991   0.44275   0.19360   1.000
    C55     C    0.58015   0.94336   0.19303   1.000
    C56     C    0.16887   0.44087   0.19199   1.000
    C57     C    0.16909   0.94049   0.19330   1.000
    C58     C    0.66888   0.44087   0.19199   1.000
    C59     C    0.66911   0.94049   0.19330   1.000
    C60     C    0.08159   0.38977   0.32963   1.000
    C61     C    0.07904   0.89076   0.32953   1.000
    C62     C    0.58160   0.38977   0.32963   1.000
    C63     C    0.57905   0.89076   0.32953   1.000
    C64     C    0.17692   0.38628   0.31652   1.000
    C65     C    0.17440   0.88620   0.31810   1.000
    C66     C    0.67693   0.38628   0.31652   1.000
    C67     C    0.67441   0.88620   0.31819   1.000
    C68     C    0.12988   0.35937   0.62690   1.000
    C69     C    0.13012   0.85918   0.62691   1.000
    C70     C    0.62990   0.35937   0.62690   1.000
    C71     C    0.63013   0.85918   0.62691   1.000
    C72     C    0.11863   0.24777   0.09132   1.000
    C73     C    0.11758   0.74830   0.09180   1.000
    C74     C    0.61864   0.24777   0.09132   1.000
    C75     C    0.61759   0.74830   0.09180   1.000
    C76     C    0.29429   0.02487   0.54977   1.000
    C77     C    0.29456   0.52461   0.54947   1.000
    C78     C    0.79430   0.02487   0.54977   1.000
    C79     C    0.79458   0.52461   0.54947   1.000
    C80     C    0.13671   0.01827   0.59271   1.000
    C81     C    0.13712   0.51839   0.59294   1.000
    C82     C    0.63673   0.01827   0.59271   1.000
    C83     C    0.63713   0.51839   0.59294   1.000
    C84     C    0.18360   0.17092   0.76314   1.000
    C85     C    0.18371   0.67040   0.76177   1.000
    C86     C    0.68361   0.17092   0.76314   1.000
    C87     C    0.68372   0.67040   0.76177   1.000
    C88     C    0.19729   0.21913   0.67660   1.000
    C89     C    0.19801   0.71922   0.67593   1.000
    C90     C    0.69730   0.21913   0.67660   1.000
    C91     C    0.69802   0.71922   0.67593   1.000
    C92     C    0.28404   0.38650   0.82345   1.000
    C93     C    0.28404   0.88670   0.82365   1.000
    C94     C    0.78405   0.38650   0.82345   1.000
    C95     C    0.78405   0.88670   0.82365   1.000
    C96     C    0.09432   0.10370   0.67627   1.000
    C97     C    0.09405   0.60440   0.67385   1.000
    C98     C    0.59434   0.10370   0.67627   1.000
    C99     C    0.59407   0.60440   0.67385   1.000
    C100    C    0.09705   0.15837   0.59533   1.000
    C101    C    0.09777   0.65955   0.59348   1.000
    C102    C    0.59706   0.15837   0.59533   1.000
    C103    C    0.59778   0.65955   0.59348   1.000
    C104    C    0.19599   0.41060   0.50500   1.000
    C105    C    0.19620   0.91053   0.50505   1.000
    C106    C    0.69600   0.41060   0.50500   1.000
    C107    C    0.69621   0.91053   0.50505   1.000
    C108    C    0.29170   0.41378   0.51246   1.000
    C109    C    0.29189   0.91398   0.51264   1.000
    C110    C    0.79172   0.41378   0.51246   1.000
    C111    C    0.79191   0.91398   0.51264   1.000
    C112    C    0.31074   0.29390   0.22512   1.000
    C113    C    0.31070   0.79378   0.22662   1.000
    C114    C    0.81076   0.29390   0.22512   1.000
    C115    C    0.81071   0.79378   0.22662   1.000
    C116    C    0.31961   0.25101   0.30795   1.000
    C117    C    0.32014   0.75041   0.30881   1.000
    C118    C    0.81962   0.25101   0.30795   1.000
    C119    C    0.82015   0.75041   0.30881   1.000
    C120    C    0.03974   0.41106   0.71663   1.000
    C121    C    0.03978   0.91077   0.71635   1.000
    C122    C    0.53975   0.41106   0.71663   1.000
    C123    C    0.53979   0.91077   0.71635   1.000
    C124    C    0.37298   0.41097   0.90000   1.000
    C125    C    0.37298   0.91012   0.89960   1.000
    C126    C    0.87300   0.41097   0.90000   1.000
    C127    C    0.87299   0.91012   0.89960   1.000
    C128    C    0.02905   0.23505   0.93249   1.000
    C129    C    0.02892   0.73400   0.93193   1.000
    C130    C    0.52906   0.23505   0.93249   1.000
    C131    C    0.52893   0.73400   0.93193   1.000
    C132    C    0.43781   0.34430   0.01621   1.000
    C133    C    0.43804   0.84350   0.01569   1.000
    C134    C    0.93782   0.34430   0.01621   1.000
    C135    C    0.93805   0.84350   0.01569   1.000
    C136    C    0.03375   0.33739   0.00977   1.000
    C137    C    0.03396   0.83649   0.00898   1.000
    C138    C    0.53376   0.33739   0.00977   1.000
    C139    C    0.53398   0.83649   0.00898   1.000
    C140    C    0.36460   0.21731   0.73206   1.000
    C141    C    0.36301   0.71740   0.73177   1.000
    C142    C    0.86462   0.21731   0.73206   1.000
    C143    C    0.86302   0.71740   0.73177   1.000
    C144    C    0.31631   0.17960   0.80990   1.000
    C145    C    0.31551   0.67961   0.81029   1.000
    C146    C    0.81632   0.17960   0.80990   1.000
    C147    C    0.81552   0.67961   0.81029   1.000
    C148    C    0.32959   0.05942   0.80820   1.000
    C149    C    0.32963   0.55925   0.80849   1.000
    C150    C    0.82960   0.05942   0.80820   1.000
    C151    C    0.82964   0.55925   0.80849   1.000
    C152    C    0.41858   0.06100   0.81000   1.000
    C153    C    0.41861   0.56141   0.80882   1.000
    C154    C    0.91860   0.06100   0.81000   1.000
    C155    C    0.91863   0.56141   0.80882   1.000
    C156    C    0.33164   0.11113   0.67135   1.000
    C157    C    0.32954   0.61100   0.67158   1.000
    C158    C    0.83165   0.11113   0.67135   1.000
    C159    C    0.82955   0.61100   0.67158   1.000
    C160    C    0.42702   0.11404   0.68412   1.000
    C161    C    0.42497   0.61438   0.68266   1.000
    C162    C    0.92703   0.11404   0.68412   1.000
    C163    C    0.92499   0.61438   0.68266   1.000
    C164    C    0.37792   0.14029   0.37363   1.000
    C165    C    0.37835   0.64056   0.37392   1.000
    C166    C    0.87794   0.14029   0.37363   1.000
    C167    C    0.87837   0.64056   0.37392   1.000
    C168    C    0.36888   0.25301   0.90920   1.000
    C169    C    0.36869   0.75207   0.90974   1.000
    C170    C    0.86890   0.25301   0.90920   1.000
    C171    C    0.86870   0.75207   0.90974   1.000
    C172    C    0.04349   0.47535   0.45103   1.000
    C173    C    0.04365   0.97571   0.45127   1.000
    C174    C    0.54350   0.47535   0.45103   1.000
    C175    C    0.54367   0.97571   0.45127   1.000
    C176    C    0.38586   0.48175   0.40859   1.000
    C177    C    0.38613   0.98160   0.40835   1.000
    C178    C    0.88587   0.48175   0.40859   1.000
    C179    C    0.88614   0.98160   0.40835   1.000
    C180    C    0.43338   0.32973   0.23710   1.000
    C181    C    0.43333   0.83005   0.23856   1.000
    C182    C    0.93339   0.32973   0.23710   1.000
    C183    C    0.93334   0.83005   0.23856   1.000
    C184    C    0.44724   0.28112   0.32319   1.000
    C185    C    0.44760   0.78087   0.32400   1.000
    C186    C    0.94725   0.28112   0.32319   1.000
    C187    C    0.94761   0.78087   0.32400   1.000
    C188    C    0.03479   0.11558   0.17943   1.000
    C189    C    0.03432   0.61469   0.17886   1.000
    C190    C    0.53481   0.11558   0.17943   1.000
    C191    C    0.53433   0.61469   0.17886   1.000
    C192    C    0.34392   0.39665   0.32473   1.000
    C193    C    0.34354   0.89595   0.32710   1.000
    C194    C    0.84394   0.39665   0.32473   1.000
    C195    C    0.84356   0.89595   0.32710   1.000
    C196    C    0.34691   0.34162   0.40519   1.000
    C197    C    0.34742   0.84051   0.40707   1.000
    C198    C    0.84693   0.34162   0.40519   1.000
    C199    C    0.84743   0.84051   0.40707   1.000
    C200    C    0.44353   0.08904   0.49620   1.000
    C201    C    0.44422   0.58919   0.49636   1.000
    C202    C    0.94354   0.08904   0.49620   1.000
    C203    C    0.94423   0.58919   0.49636   1.000
    C204    C    0.03931   0.08663   0.48980   1.000
    C205    C    0.03996   0.58626   0.48940   1.000
    C206    C    0.53933   0.08663   0.48980   1.000
    C207    C    0.53997   0.58626   0.48940   1.000
    C208    C    0.25922   0.10214   0.22903   1.000
    C209    C    0.25931   0.60210   0.22950   1.000
    C210    C    0.75924   0.10214   0.22903   1.000
    C211    C    0.75932   0.60210   0.22950   1.000
    C212    C    0.17355   0.10186   0.13407   1.000
    C213    C    0.17347   0.60202   0.13474   1.000
    C214    C    0.67356   0.10186   0.13407   1.000
    C215    C    0.67349   0.60202   0.13474   1.000
    C216    C    0.22959   0.13828   0.10608   1.000
    C217    C    0.22936   0.63867   0.10690   1.000
    C218    C    0.72960   0.13828   0.10608   1.000
    C219    C    0.72937   0.63867   0.10690   1.000
    C220    C    0.21856   0.27403   0.95262   1.000
    C221    C    0.21842   0.77448   0.95399   1.000
    C222    C    0.71857   0.27403   0.95262   1.000
    C223    C    0.71843   0.77448   0.95399   1.000
    C224    C    0.22765   0.24690   0.04067   1.000
    C225    C    0.22692   0.74754   0.04221   1.000
    C226    C    0.72766   0.24690   0.04067   1.000
    C227    C    0.72693   0.74754   0.04221   1.000
    C228    C    0.23271   0.17303   0.02629   1.000
    C229    C    0.23223   0.67372   0.02745   1.000
    C230    C    0.73272   0.17303   0.02629   1.000
    C231    C    0.73224   0.67372   0.02745   1.000
    C232    C    0.11710   0.32409   0.22592   1.000
    C233    C    0.11503   0.82443   0.22667   1.000
    C234    C    0.61711   0.32409   0.22592   1.000
    C235    C    0.61505   0.82443   0.22667   1.000
    C236    C    0.12521   0.38593   0.28202   1.000
    C237    C    0.12320   0.88632   0.28268   1.000
    C238    C    0.62523   0.38593   0.28202   1.000
    C239    C    0.62322   0.88632   0.28268   1.000
    C240    C    0.23405   0.41196   0.63086   1.000
    C241    C    0.23415   0.91197   0.63096   1.000
    C242    C    0.73406   0.41196   0.63086   1.000
    C243    C    0.73416   0.91197   0.63096   1.000
    C244    C    0.17836   0.37602   0.66061   1.000
    C245    C    0.17853   0.87592   0.66067   1.000
    C246    C    0.67837   0.37602   0.66061   1.000
    C247    C    0.67854   0.87592   0.66067   1.000
    C248    C    0.23140   0.01428   0.43489   1.000
    C249    C    0.23150   0.51418   0.43475   1.000
    C250    C    0.73142   0.01428   0.43489   1.000
    C251    C    0.73151   0.51418   0.43475   1.000
    C252    C    0.24114   0.00517   0.53124   1.000
    C253    C    0.24132   0.50507   0.53107   1.000
    C254    C    0.74115   0.00517   0.53124   1.000
    C255    C    0.74133   0.50507   0.53107   1.000
    C256    C    0.18090   0.31098   0.16536   1.000
    C257    C    0.17945   0.81100   0.16715   1.000
    C258    C    0.68092   0.31098   0.16536   1.000
    C259    C    0.67946   0.81100   0.16715   1.000
    C260    C    0.15679   0.19069   0.70819   1.000
    C261    C    0.15723   0.69073   0.70701   1.000
    C262    C    0.65680   0.19069   0.70819   1.000
    C263    C    0.65724   0.69073   0.70701   1.000
    C264    C    0.25679   0.39089   0.76300   1.000
    C265    C    0.25685   0.89099   0.76316   1.000
    C266    C    0.75680   0.39089   0.76300   1.000
    C267    C    0.75686   0.89099   0.76316   1.000
    C268    C    0.12968   0.13718   0.64518   1.000
    C269    C    0.12990   0.63776   0.64326   1.000
    C270    C    0.62969   0.13718   0.64518   1.000
    C271    C    0.62991   0.63776   0.64326   1.000
    C272    C    0.24131   0.43259   0.54199   1.000
    C273    C    0.24141   0.93264   0.54211   1.000
    C274    C    0.74132   0.43259   0.54199   1.000
    C275    C    0.74142   0.93264   0.54211   1.000
    C276    C    0.19296   0.10312   0.59920   1.000
    C277    C    0.19299   0.60341   0.59730   1.000
    C278    C    0.69297   0.10312   0.59920   1.000
    C279    C    0.69300   0.60341   0.59730   1.000
    C280    C    0.00932   0.39908   0.77258   1.000
    C281    C    0.00935   0.89865   0.77220   1.000
    C282    C    0.50933   0.39908   0.77258   1.000
    C283    C    0.50936   0.89865   0.77220   1.000
    C284    C    0.42395   0.39946   0.86809   1.000
    C285    C    0.42396   0.89873   0.86768   1.000
    C286    C    0.92397   0.39946   0.86809   1.000
    C287    C    0.92397   0.89873   0.86768   1.000
    C288    C    0.47985   0.36241   0.89528   1.000
    C289    C    0.47988   0.86166   0.89473   1.000
    C290    C    0.97987   0.36241   0.89528   1.000
    C291    C    0.97989   0.86166   0.89473   1.000
    C292    C    0.46864   0.22602   0.04768   1.000
    C293    C    0.46851   0.72562   0.04745   1.000
    C294    C    0.96865   0.22602   0.04768   1.000
    C295    C    0.96853   0.72562   0.04745   1.000
    C296    C    0.47788   0.25344   0.95985   1.000
    C297    C    0.47785   0.75258   0.95932   1.000
    C298    C    0.97790   0.25344   0.95985   1.000
    C299    C    0.97786   0.75258   0.95932   1.000
    C300    C    0.48303   0.32725   0.97473   1.000
    C301    C    0.48316   0.82642   0.97408   1.000
    C302    C    0.98304   0.32725   0.97473   1.000
    C303    C    0.98318   0.82642   0.97408   1.000
    C304    C    0.36766   0.17741   0.77404   1.000
    C305    C    0.36648   0.67748   0.77368   1.000
    C306    C    0.86767   0.17741   0.77404   1.000
    C307    C    0.86649   0.67748   0.77368   1.000
    C308    C    0.37532   0.11513   0.71878   1.000
    C309    C    0.37376   0.61521   0.71828   1.000
    C310    C    0.87533   0.11513   0.71878   1.000
    C311    C    0.87377   0.61521   0.71828   1.000
    C312    C    0.48281   0.08857   0.37084   1.000
    C313    C    0.48299   0.58844   0.37076   1.000
    C314    C    0.98283   0.08857   0.37084   1.000
    C315    C    0.98301   0.58844   0.37076   1.000
    C316    C    0.42698   0.12418   0.34052   1.000
    C317    C    0.42722   0.62420   0.34060   1.000
    C318    C    0.92699   0.12418   0.34052   1.000
    C319    C    0.92723   0.62420   0.34060   1.000
    C320    C    0.48118   0.48579   0.56646   1.000
    C321    C    0.48120   0.98585   0.56658   1.000
    C322    C    0.98120   0.48579   0.56646   1.000
    C323    C    0.98121   0.98585   0.56658   1.000
    C324    C    0.99026   0.49487   0.46998   1.000
    C325    C    0.99029   0.99498   0.47013   1.000
    C326    C    0.49028   0.49487   0.46998   1.000
    C327    C    0.49030   0.99498   0.47013   1.000
    C328    C    0.43128   0.18995   0.83480   1.000
    C329    C    0.43076   0.68991   0.83352   1.000
    C330    C    0.93129   0.18995   0.83480   1.000
    C331    C    0.93078   0.68991   0.83352   1.000
    C332    C    0.40664   0.30975   0.29194   1.000
    C333    C    0.40683   0.80960   0.29320   1.000
    C334    C    0.90666   0.30975   0.29194   1.000
    C335    C    0.90684   0.80960   0.29320   1.000
    C336    C    0.00687   0.11057   0.23932   1.000
    C337    C    0.00664   0.61001   0.23898   1.000
    C338    C    0.50689   0.11057   0.23932   1.000
    C339    C    0.50666   0.61001   0.23898   1.000
    C340    C    0.37944   0.36302   0.35543   1.000
    C341    C    0.37949   0.86241   0.35735   1.000
    C342    C    0.87945   0.36302   0.35543   1.000
    C343    C    0.87950   0.86241   0.35735   1.000
    C344    C    0.48945   0.06755   0.45958   1.000
    C345    C    0.48986   0.56745   0.45947   1.000
    C346    C    0.98946   0.06755   0.45958   1.000
    C347    C    0.98987   0.56745   0.45947   1.000
    C348    C    0.44261   0.39696   0.40149   1.000
    C349    C    0.44250   0.89662   0.40338   1.000
    C350    C    0.94262   0.39696   0.40149   1.000
    C351    C    0.94251   0.89662   0.40338   1.000
    C352    C    0.09811   0.23340   0.74260   1.000
    C353    C    0.09872   0.73351   0.74167   1.000
    C354    C    0.59813   0.23340   0.74260   1.000
    C355    C    0.59873   0.73351   0.74167   1.000
    C356    C    0.19289   0.36259   0.74411   1.000
    C357    C    0.19305   0.86255   0.74420   1.000
    C358    C    0.69290   0.36259   0.74411   1.000
    C359    C    0.69306   0.86255   0.74420   1.000
    C360    C    0.19221   0.07926   0.21206   1.000
    C361    C    0.19234   0.57916   0.21248   1.000
    C362    C    0.69223   0.07926   0.21206   1.000
    C363    C    0.69235   0.57916   0.21248   1.000
    C364    C    0.28411   0.13820   0.16727   1.000
    C365    C    0.28399   0.63845   0.16790   1.000
    C366    C    0.78412   0.13820   0.16727   1.000
    C367    C    0.78400   0.63845   0.16790   1.000
    C368    C    0.12480   0.44387   0.23237   1.000
    C369    C    0.12444   0.94409   0.23270   1.000
    C370    C    0.62481   0.44387   0.23237   1.000
    C371    C    0.62445   0.94409   0.23270   1.000
    C372    C    0.28413   0.42167   0.69709   1.000
    C373    C    0.28416   0.92180   0.69725   1.000
    C374    C    0.78415   0.42167   0.69709   1.000
    C375    C    0.78417   0.92180   0.69725   1.000
    C376    C    0.17020   0.26654   0.10042   1.000
    C377    C    0.16910   0.76706   0.10150   1.000
    C378    C    0.67021   0.26654   0.10042   1.000
    C379    C    0.66912   0.76706   0.10150   1.000
    C380    C    0.18674   0.03892   0.58429   1.000
    C381    C    0.18707   0.53905   0.58409   1.000
    C382    C    0.68676   0.03892   0.58429   1.000
    C383    C    0.68708   0.53905   0.58409   1.000
    C384    C    0.34804   0.26722   0.25741   1.000
    C385    C    0.34832   0.76706   0.25837   1.000
    C386    C    0.84805   0.26722   0.25741   1.000
    C387    C    0.84834   0.76706   0.25837   1.000
    C388    C    0.44234   0.13815   0.25740   1.000
    C389    C    0.44234   0.63791   0.25731   1.000
    C390    C    0.94236   0.13815   0.25740   1.000
    C391    C    0.94235   0.63791   0.25731   1.000
    C392    C    0.44253   0.42243   0.79000   1.000
    C393    C    0.44253   0.92191   0.79001   1.000
    C394    C    0.94254   0.42243   0.79000   1.000
    C395    C    0.94255   0.92191   0.79001   1.000
    C396    C    0.03417   0.36243   0.83370   1.000
    C397    C    0.03420   0.86186   0.83324   1.000
    C398    C    0.53418   0.36243   0.83370   1.000
    C399    C    0.53422   0.86186   0.83324   1.000
    C400    C    0.37462   0.05777   0.76957   1.000
    C401    C    0.37419   0.55788   0.76910   1.000
    C402    C    0.87463   0.05777   0.76957   1.000
    C403    C    0.87421   0.55788   0.76910   1.000
    C404    C    0.03383   0.07971   0.30538   1.000
    C405    C    0.03371   0.57922   0.30504   1.000
    C406    C    0.53384   0.07971   0.30538   1.000
    C407    C    0.53372   0.57922   0.30504   1.000
    C408    C    0.42052   0.23423   0.89990   1.000
    C409    C    0.42028   0.73339   0.89971   1.000
    C410    C    0.92053   0.23423   0.89990   1.000
    C411    C    0.92029   0.73339   0.89971   1.000
    C412    C    0.43592   0.46107   0.41724   1.000
    C413    C    0.43611   0.96091   0.41742   1.000
    C414    C    0.93593   0.46107   0.41724   1.000
    C415    C    0.93612   0.96091   0.41742   1.000
    C416    C    0.15289   0.28883   0.93340   1.000
    C417    C    0.15287   0.78884   0.93360   1.000
    C418    C    0.65290   0.28883   0.93340   1.000
    C419    C    0.65289   0.78884   0.93360   1.000
    C420    C    0.27224   0.27759   0.90440   1.000
    C421    C    0.27263   0.77806   0.90670   1.000
    C422    C    0.77225   0.27759   0.90440   1.000
    C423    C    0.77265   0.77806   0.90670   1.000
    C424    C    0.16569   0.02778   0.41324   1.000
    C425    C    0.16576   0.52762   0.41317   1.000
    C426    C    0.66570   0.02778   0.41324   1.000
    C427    C    0.66577   0.52762   0.41317   1.000
    C428    C    0.23995   0.33966   0.17827   1.000
    C429    C    0.23853   0.83929   0.18140   1.000
    C430    C    0.73996   0.33966   0.17827   1.000
    C431    C    0.73854   0.83929   0.18140   1.000
    C432    C    0.28406   0.00567   0.38528   1.000
    C433    C    0.28414   0.50560   0.38512   1.000
    C434    C    0.78407   0.00567   0.38528   1.000
    C435    C    0.78415   0.50560   0.38512   1.000
    C436    C    0.24712   0.13339   0.57777   1.000
    C437    C    0.24684   0.63348   0.57440   1.000
    C438    C    0.74713   0.13339   0.57777   1.000
    C439    C    0.74685   0.63348   0.57440   1.000
    C440    C    0.40298   0.21109   0.06668   1.000
    C441    C    0.40283   0.71098   0.06667   1.000
    C442    C    0.90299   0.21109   0.06668   1.000
    C443    C    0.90284   0.71098   0.06667   1.000
    C444    C    0.02220   0.22236   0.09590   1.000
    C445    C    0.02204   0.72219   0.09581   1.000
    C446    C    0.52221   0.22236   0.09590   1.000
    C447    C    0.52206   0.72219   0.09581   1.000
    C448    C    0.41567   0.47249   0.58905   1.000
    C449    C    0.41568   0.97256   0.58915   1.000
    C450    C    0.91568   0.47249   0.58905   1.000
    C451    C    0.91569   0.97256   0.58915   1.000
    C452    C    0.99024   0.16095   0.82188   1.000
    C453    C    0.98976   0.66132   0.81890   1.000
    C454    C    0.49025   0.16095   0.82188   1.000
    C455    C    0.48978   0.66132   0.81890   1.000
    C456    C    0.03425   0.49437   0.61526   1.000
    C457    C    0.03426   0.99438   0.61540   1.000
    C458    C    0.53426   0.49437   0.61526   1.000
    C459    C    0.53427   0.99438   0.61540   1.000
    C460    C    0.99701   0.36666   0.42231   1.000
    C461    C    0.99660   0.86652   0.42559   1.000
    C462    C    0.49702   0.36666   0.42231   1.000
    C463    C    0.49661   0.86652   0.42559   1.000
    O464    O    0.00857   0.83146   0.99153   1.000
    O465    O    0.50857   0.83146   0.99153   1.000
    O466    O    0.50839   0.33232   0.99225   1.000
    O467    O    0.00839   0.33232   0.99225   1.000
    O468    O    0.46060   0.83496   0.99488   1.000
    O469    O    0.96061   0.83496   0.99488   1.000
    O470    O    0.46042   0.33578   0.99547   1.000
    O471    O    0.96043   0.33578   0.99547   1.000
    O472    O    0.73019   0.20997   0.03348   1.000
    O473    O    0.73116   0.15566   0.06618   1.000
    O474    O    0.71008   0.16451   0.00568   1.000
    O475    O    0.75807   0.16779   0.00871   1.000
    O476    O    0.23018   0.20997   0.03348   1.000
    O477    O    0.23115   0.15566   0.06618   1.000
    O478    O    0.21007   0.16451   0.00568   1.000
    O479    O    0.25805   0.16779   0.00871   1.000
    O480    O    0.72959   0.71063   0.03483   1.000
    O481    O    0.73081   0.65619   0.06717   1.000
    O482    O    0.70960   0.66522   0.00683   1.000
    O483    O    0.75758   0.66862   0.00980   1.000
    O484    O    0.22958   0.71063   0.03483   1.000
    O485    O    0.23079   0.65619   0.06717   1.000
    O486    O    0.20959   0.66522   0.00683   1.000
    O487    O    0.25757   0.66862   0.00980   1.000
    O488    O    0.75324   0.25604   0.05429   1.000
    O489    O    0.69893   0.25672   0.07054   1.000
    O490    O    0.72311   0.26046   0.99664   1.000
    O491    O    0.25323   0.25604   0.05429   1.000
    O492    O    0.19892   0.25672   0.07054   1.000
    O493    O    0.22310   0.26046   0.99664   1.000
    O494    O    0.75242   0.75672   0.05604   1.000
    O495    O    0.69802   0.75730   0.07185   1.000
    O496    O    0.72268   0.76101   0.99810   1.000
    O497    O    0.25241   0.75672   0.05604   1.000
    O498    O    0.19801   0.75730   0.07185   1.000
    O499    O    0.22267   0.76101   0.99810   1.000
    O500    O    0.93568   0.71830   0.05706   1.000
    O501    O    0.99528   0.72391   0.07163   1.000
    O502    O    0.97319   0.73910   0.00338   1.000
    O503    O    0.43567   0.71830   0.05706   1.000
    O504    O    0.49529   0.72391   0.07163   1.000
    O505    O    0.47318   0.73910   0.00338   1.000
    O506    O    0.93582   0.21855   0.05718   1.000
    O507    O    0.99542   0.22419   0.07179   1.000
    O508    O    0.97327   0.23973   0.00376   1.000
    O509    O    0.43581   0.21855   0.05718   1.000
    O510    O    0.49542   0.22419   0.07179   1.000
    O511    O    0.47326   0.23973   0.00376   1.000
    O512    O    0.89059   0.69844   0.12433   1.000
    O513    O    0.39058   0.69844   0.12433   1.000
    O514    O    0.89065   0.19847   0.12426   1.000
    O515    O    0.39064   0.19847   0.12426   1.000
    O516    O    0.14441   0.25716   0.09587   1.000
    O517    O    0.64443   0.25716   0.09587   1.000
    O518    O    0.14334   0.75768   0.09665   1.000
    O519    O    0.64335   0.75768   0.09665   1.000
    O520    O    0.67556   0.28876   0.13289   1.000
    O521    O    0.17555   0.28876   0.13289   1.000
    O522    O    0.67429   0.78903   0.13432   1.000
    O523    O    0.17427   0.78903   0.13432   1.000
    O524    O    0.64800   0.09621   0.11828   1.000
    O525    O    0.14799   0.09621   0.11828   1.000
    O526    O    0.14792   0.59636   0.11899   1.000
    O527    O    0.64793   0.59636   0.11899   1.000
    O528    O    0.20157   0.12007   0.12007   1.000
    O529    O    0.25685   0.13824   0.13667   1.000
    O530    O    0.70158   0.12007   0.12007   1.000
    O531    O    0.75686   0.13824   0.13667   1.000
    O532    O    0.20141   0.62034   0.12082   1.000
    O533    O    0.25667   0.63856   0.13740   1.000
    O534    O    0.70143   0.62034   0.12082   1.000
    O535    O    0.75668   0.63856   0.13740   1.000
    O536    O    0.68289   0.09056   0.17306   1.000
    O537    O    0.18288   0.09056   0.17306   1.000
    O538    O    0.68292   0.59059   0.17361   1.000
    O539    O    0.18290   0.59059   0.17361   1.000
    O540    O    0.71044   0.32532   0.17181   1.000
    O541    O    0.64902   0.31754   0.19564   1.000
    O542    O    0.21043   0.32532   0.17181   1.000
    O543    O    0.14900   0.31754   0.19564   1.000
    O544    O    0.70900   0.82515   0.17427   1.000
    O545    O    0.64725   0.81772   0.19691   1.000
    O546    O    0.20899   0.82515   0.17427   1.000
    O547    O    0.14724   0.81772   0.19691   1.000
    O548    O    0.83122   0.16203   0.17455   1.000
    O549    O    0.77168   0.12017   0.19815   1.000
    O550    O    0.33121   0.16203   0.17455   1.000
    O551    O    0.27167   0.12017   0.19815   1.000
    O552    O    0.83117   0.66218   0.17494   1.000
    O553    O    0.77166   0.62028   0.19870   1.000
    O554    O    0.33116   0.66218   0.17494   1.000
    O555    O    0.27165   0.62028   0.19870   1.000
    O556    O    0.52049   0.61235   0.20892   1.000
    O557    O    0.02048   0.61235   0.20892   1.000
    O558    O    0.52085   0.11308   0.20937   1.000
    O559    O    0.02083   0.11308   0.20937   1.000
    O560    O    0.91034   0.16200   0.21962   1.000
    O561    O    0.86318   0.22654   0.21962   1.000
    O562    O    0.41032   0.16200   0.21962   1.000
    O563    O    0.36317   0.22654   0.21962   1.000
    O564    O    0.41033   0.66190   0.21965   1.000
    O565    O    0.36332   0.72648   0.22018   1.000
    O566    O    0.91034   0.66190   0.21965   1.000
    O567    O    0.86334   0.72648   0.22018   1.000
    O568    O    0.58968   0.82398   0.20818   1.000
    O569    O    0.08967   0.82398   0.20818   1.000
    O570    O    0.59154   0.32347   0.20783   1.000
    O571    O    0.09153   0.32347   0.20783   1.000
    O572    O    0.64685   0.44237   0.21218   1.000
    O573    O    0.14683   0.44237   0.21218   1.000
    O574    O    0.10229   0.94372   0.21286   1.000
    O575    O    0.60230   0.94372   0.21286   1.000
    O576    O    0.64678   0.94229   0.21300   1.000
    O577    O    0.14676   0.94229   0.21300   1.000
    O578    O    0.60236   0.44331   0.21298   1.000
    O579    O    0.10235   0.44331   0.21298   1.000
    O580    O    0.22572   0.09070   0.22054   1.000
    O581    O    0.16170   0.05758   0.25423   1.000
    O582    O    0.72573   0.09070   0.22054   1.000
    O583    O    0.66171   0.05758   0.25423   1.000
    O584    O    0.22582   0.59063   0.22099   1.000
    O585    O    0.16176   0.55742   0.25446   1.000
    O586    O    0.72584   0.59063   0.22099   1.000
    O587    O    0.66178   0.55742   0.25446   1.000
    O588    O    0.82940   0.28056   0.24126   1.000
    O589    O    0.32939   0.28056   0.24126   1.000
    O590    O    0.11512   0.30401   0.24664   1.000
    O591    O    0.12116   0.35501   0.25397   1.000
    O592    O    0.61514   0.30401   0.24664   1.000
    O593    O    0.62117   0.35501   0.25397   1.000
    O594    O    0.82953   0.78042   0.24249   1.000
    O595    O    0.32951   0.78042   0.24249   1.000
    O596    O    0.61266   0.80441   0.24742   1.000
    O597    O    0.61913   0.85538   0.25467   1.000
    O598    O    0.11265   0.80441   0.24742   1.000
    O599    O    0.11912   0.85538   0.25467   1.000
    O600    O    0.77452   0.09616   0.25693   1.000
    O601    O    0.27451   0.09616   0.25693   1.000
    O602    O    0.77466   0.59605   0.25733   1.000
    O603    O    0.27464   0.59605   0.25733   1.000
    O604    O    0.62502   0.41490   0.25719   1.000
    O605    O    0.62801   0.48978   0.26440   1.000
    O606    O    0.12501   0.41490   0.25719   1.000
    O607    O    0.12800   0.48978   0.26440   1.000
    O608    O    0.62383   0.91520   0.25769   1.000
    O609    O    0.62782   0.99000   0.26455   1.000
    O610    O    0.12382   0.91520   0.25769   1.000
    O611    O    0.12781   0.99000   0.26455   1.000
    O612    O    0.92002   0.31974   0.26452   1.000
    O613    O    0.42001   0.31974   0.26452   1.000
    O614    O    0.42008   0.81982   0.26588   1.000
    O615    O    0.92009   0.81982   0.26588   1.000
    O616    O    0.47450   0.62396   0.24814   1.000
    O617    O    0.52019   0.59461   0.27201   1.000
    O618    O    0.97450   0.62396   0.24814   1.000
    O619    O    0.02018   0.59461   0.27201   1.000
    O620    O    0.47462   0.12436   0.24836   1.000
    O621    O    0.52036   0.09514   0.27235   1.000
    O622    O    0.97462   0.12436   0.24836   1.000
    O623    O    0.02035   0.09514   0.27235   1.000
    O624    O    0.93479   0.63105   0.29896   1.000
    O625    O    0.43478   0.63105   0.29896   1.000
    O626    O    0.93467   0.13116   0.29896   1.000
    O627    O    0.43466   0.13116   0.29896   1.000
    O628    O    0.87735   0.28848   0.27467   1.000
    O629    O    0.83384   0.25911   0.28268   1.000
    O630    O    0.37734   0.28848   0.27467   1.000
    O631    O    0.33382   0.25911   0.28268   1.000
    O632    O    0.37758   0.78833   0.27579   1.000
    O633    O    0.33423   0.75874   0.28359   1.000
    O634    O    0.87759   0.78833   0.27579   1.000
    O635    O    0.83424   0.75874   0.28359   1.000
    O636    O    0.15107   0.38610   0.29927   1.000
    O637    O    0.10340   0.38785   0.30582   1.000
    O638    O    0.65108   0.38610   0.29927   1.000
    O639    O    0.60341   0.38785   0.30582   1.000
    O640    O    0.14880   0.88626   0.30039   1.000
    O641    O    0.10112   0.88854   0.30610   1.000
    O642    O    0.64881   0.88626   0.30043   1.000
    O643    O    0.60113   0.88854   0.30610   1.000
    O644    O    0.92695   0.29543   0.30756   1.000
    O645    O    0.89305   0.33638   0.32368   1.000
    O646    O    0.42694   0.29543   0.30756   1.000
    O647    O    0.39304   0.33638   0.32368   1.000
    O648    O    0.42721   0.79523   0.30860   1.000
    O649    O    0.39316   0.83601   0.32527   1.000
    O650    O    0.92723   0.79523   0.30860   1.000
    O651    O    0.89317   0.83601   0.32527   1.000
    O652    O    0.58252   0.05781   0.30089   1.000
    O653    O    0.64845   0.03184   0.35482   1.000
    O654    O    0.08251   0.05781   0.30089   1.000
    O655    O    0.14844   0.03184   0.35482   1.000
    O656    O    0.08245   0.55745   0.30074   1.000
    O657    O    0.14847   0.53165   0.35480   1.000
    O658    O    0.58246   0.55745   0.30074   1.000
    O659    O    0.64849   0.53165   0.35480   1.000
    O660    O    0.50836   0.58383   0.33790   1.000
    O661    O    0.00836   0.58383   0.33790   1.000
    O662    O    0.50833   0.08414   0.33811   1.000
    O663    O    0.00833   0.08414   0.33811   1.000
    O664    O    0.36168   0.37984   0.34008   1.000
    O665    O    0.86169   0.37984   0.34008   1.000
    O666    O    0.36152   0.87918   0.34222   1.000
    O667    O    0.86153   0.87918   0.34222   1.000
    O668    O    0.45489   0.10637   0.35568   1.000
    O669    O    0.40245   0.13223   0.35707   1.000
    O670    O    0.95491   0.10637   0.35568   1.000
    O671    O    0.90246   0.13223   0.35707   1.000
    O672    O    0.95512   0.60632   0.35568   1.000
    O673    O    0.90280   0.63238   0.35726   1.000
    O674    O    0.45511   0.60632   0.35568   1.000
    O675    O    0.40279   0.63238   0.35726   1.000
    O676    O    0.91104   0.37999   0.37846   1.000
    O677    O    0.86319   0.35232   0.38031   1.000
    O678    O    0.41102   0.37999   0.37846   1.000
    O679    O    0.36318   0.35232   0.38031   1.000
    O680    O    0.91101   0.87952   0.38036   1.000
    O681    O    0.86347   0.85146   0.38221   1.000
    O682    O    0.41100   0.87952   0.38036   1.000
    O683    O    0.36345   0.85146   0.38221   1.000
    O684    O    0.98644   0.57794   0.41511   1.000
    O685    O    0.48643   0.57794   0.41511   1.000
    O686    O    0.98615   0.07806   0.41521   1.000
    O687    O    0.48613   0.07806   0.41521   1.000
    O688    O    0.75783   0.50989   0.40993   1.000
    O689    O    0.25782   0.50989   0.40993   1.000
    O690    O    0.75774   0.00997   0.41008   1.000
    O691    O    0.25773   0.00997   0.41008   1.000
    O692    O    0.43926   0.42901   0.40936   1.000
    O693    O    0.46982   0.38181   0.41190   1.000
    O694    O    0.93927   0.42901   0.40936   1.000
    O695    O    0.96982   0.38181   0.41190   1.000
    O696    O    0.43931   0.92877   0.41040   1.000
    O697    O    0.46956   0.88157   0.41448   1.000
    O698    O    0.93932   0.92877   0.41040   1.000
    O699    O    0.96956   0.88157   0.41448   1.000
    O700    O    0.41112   0.97126   0.41288   1.000
    O701    O    0.91113   0.97126   0.41288   1.000
    O702    O    0.91090   0.47141   0.41291   1.000
    O703    O    0.41089   0.47141   0.41291   1.000
    O704    O    0.19863   0.52090   0.42396   1.000
    O705    O    0.69864   0.52090   0.42396   1.000
    O706    O    0.19855   0.02103   0.42406   1.000
    O707    O    0.69856   0.02103   0.42406   1.000
    O708    O    0.96310   0.47797   0.44361   1.000
    O709    O    0.46310   0.47797   0.44361   1.000
    O710    O    0.96321   0.97795   0.44377   1.000
    O711    O    0.46321   0.97795   0.44377   1.000
    O712    O    0.23641   0.50963   0.48291   1.000
    O713    O    0.73642   0.50963   0.48291   1.000
    O714    O    0.23627   0.00972   0.48306   1.000
    O715    O    0.73629   0.00972   0.48306   1.000
    O716    O    0.01688   0.48511   0.46050   1.000
    O717    O    0.51689   0.48511   0.46050   1.000
    O718    O    0.01697   0.98535   0.46070   1.000
    O719    O    0.51699   0.98535   0.46070   1.000
    O720    O    0.99007   0.53116   0.46472   1.000
    O721    O    0.01492   0.57685   0.47443   1.000
    O722    O    0.96705   0.57832   0.47791   1.000
    O723    O    0.49007   0.53116   0.46472   1.000
    O724    O    0.51492   0.57685   0.47443   1.000
    O725    O    0.46704   0.57832   0.47791   1.000
    O726    O    0.98988   0.03127   0.46485   1.000
    O727    O    0.01439   0.07709   0.47469   1.000
    O728    O    0.96650   0.07830   0.47789   1.000
    O729    O    0.48988   0.03127   0.46485   1.000
    O730    O    0.51439   0.07709   0.47469   1.000
    O731    O    0.46649   0.07830   0.47789   1.000
    O732    O    0.98573   0.49033   0.51822   1.000
    O733    O    0.48573   0.49033   0.51822   1.000
    O734    O    0.98575   0.99042   0.51835   1.000
    O735    O    0.48575   0.99042   0.51835   1.000
    O736    O    0.21865   0.42159   0.52349   1.000
    O737    O    0.71866   0.42159   0.52349   1.000
    O738    O    0.21881   0.92159   0.52358   1.000
    O739    O    0.71882   0.92158   0.52358   1.000
    O740    O    0.26650   0.42318   0.52723   1.000
    O741    O    0.76652   0.42318   0.52723   1.000
    O742    O    0.26665   0.92331   0.52737   1.000
    O743    O    0.76667   0.92331   0.52737   1.000
    O744    O    0.74132   0.46883   0.53653   1.000
    O745    O    0.76795   0.51484   0.54027   1.000
    O746    O    0.71420   0.52206   0.55758   1.000
    O747    O    0.24131   0.46883   0.53653   1.000
    O748    O    0.26794   0.51484   0.54027   1.000
    O749    O    0.21419   0.52206   0.55758   1.000
    O750    O    0.74129   0.96890   0.53668   1.000
    O751    O    0.76773   0.01502   0.54051   1.000
    O752    O    0.71396   0.02205   0.55776   1.000
    O753    O    0.24128   0.96891   0.53668   1.000
    O754    O    0.26771   0.01502   0.54051   1.000
    O755    O    0.21394   0.02205   0.55776   1.000
    O756    O    0.73769   0.42227   0.58642   1.000
    O757    O    0.23768   0.42227   0.58642   1.000
    O758    O    0.23778   0.92231   0.58653   1.000
    O759    O    0.73779   0.92231   0.58653   1.000
    O760    O    0.94844   0.47914   0.57776   1.000
    O761    O    0.00772   0.49008   0.59086   1.000
    O762    O    0.44843   0.47914   0.57776   1.000
    O763    O    0.50772   0.49008   0.59086   1.000
    O764    O    0.94845   0.97920   0.57786   1.000
    O765    O    0.00774   0.99012   0.59099   1.000
    O766    O    0.44844   0.97920   0.57786   1.000
    O767    O    0.50774   0.99012   0.59099   1.000
    O768    O    0.21991   0.61845   0.58585   1.000
    O769    O    0.71992   0.61845   0.58585   1.000
    O770    O    0.72005   0.11825   0.58848   1.000
    O771    O    0.22004   0.11825   0.58848   1.000
    O772    O    0.16209   0.52872   0.58851   1.000
    O773    O    0.19003   0.57123   0.59069   1.000
    O774    O    0.66211   0.52872   0.58851   1.000
    O775    O    0.69004   0.57123   0.59069   1.000
    O776    O    0.16173   0.02859   0.58850   1.000
    O777    O    0.18985   0.07102   0.59174   1.000
    O778    O    0.66174   0.02859   0.58850   1.000
    O779    O    0.68986   0.07102   0.59174   1.000
    O780    O    0.89843   0.46930   0.64775   1.000
    O781    O    0.39841   0.46930   0.64775   1.000
    O782    O    0.89847   0.96932   0.64787   1.000
    O783    O    0.39846   0.96932   0.64787   1.000
    O784    O    0.61385   0.64866   0.61837   1.000
    O785    O    0.11384   0.64866   0.61837   1.000
    O786    O    0.61337   0.14778   0.62026   1.000
    O787    O    0.11336   0.14778   0.62026   1.000
    O788    O    0.16144   0.62059   0.62028   1.000
    O789    O    0.66146   0.62059   0.62028   1.000
    O790    O    0.16132   0.12015   0.62219   1.000
    O791    O    0.66133   0.12015   0.62219   1.000
    O792    O    0.65413   0.36770   0.64375   1.000
    O793    O    0.15412   0.36770   0.64375   1.000
    O794    O    0.65434   0.86755   0.64379   1.000
    O795    O    0.15432   0.86755   0.64379   1.000
    O796    O    0.20620   0.39399   0.64574   1.000
    O797    O    0.25909   0.41681   0.66397   1.000
    O798    O    0.70621   0.39399   0.64574   1.000
    O799    O    0.75910   0.41681   0.66397   1.000
    O800    O    0.20634   0.89394   0.64581   1.000
    O801    O    0.25915   0.91689   0.66410   1.000
    O802    O    0.70635   0.89394   0.64581   1.000
    O803    O    0.75917   0.91689   0.66410   1.000
    O804    O    0.61199   0.62108   0.65856   1.000
    O805    O    0.64358   0.66425   0.67513   1.000
    O806    O    0.11198   0.62108   0.65856   1.000
    O807    O    0.14357   0.66425   0.67513   1.000
    O808    O    0.61201   0.12044   0.66072   1.000
    O809    O    0.64325   0.16393   0.67668   1.000
    O810    O    0.11200   0.12044   0.66072   1.000
    O811    O    0.14324   0.16393   0.67668   1.000
    O812    O    0.68564   0.36930   0.70236   1.000
    O813    O    0.18562   0.36930   0.70236   1.000
    O814    O    0.18579   0.86923   0.70243   1.000
    O815    O    0.68580   0.86923   0.70243   1.000
    O816    O    0.85349   0.11313   0.69506   1.000
    O817    O    0.35348   0.11313   0.69506   1.000
    O818    O    0.85166   0.61311   0.69493   1.000
    O819    O    0.35165   0.61311   0.69493   1.000
    O820    O    0.17762   0.70497   0.69147   1.000
    O821    O    0.67763   0.70497   0.69147   1.000
    O822    O    0.17704   0.20491   0.69239   1.000
    O823    O    0.67705   0.20491   0.69239   1.000
    O824    O    0.39937   0.61479   0.70047   1.000
    O825    O    0.89938   0.61479   0.70047   1.000
    O826    O    0.40117   0.11458   0.70145   1.000
    O827    O    0.90118   0.11458   0.70145   1.000
    O828    O    0.08469   0.74186   0.71642   1.000
    O829    O    0.58470   0.74186   0.71642   1.000
    O830    O    0.08393   0.24151   0.71731   1.000
    O831    O    0.58394   0.24151   0.71731   1.000
    O832    O    0.83266   0.44389   0.70177   1.000
    O833    O    0.77048   0.40628   0.73004   1.000
    O834    O    0.33265   0.44389   0.70177   1.000
    O835    O    0.27046   0.40628   0.73004   1.000
    O836    O    0.83271   0.94395   0.70192   1.000
    O837    O    0.77052   0.90640   0.73020   1.000
    O838    O    0.33270   0.94395   0.70192   1.000
    O839    O    0.27050   0.90640   0.73020   1.000
    O840    O    0.37768   0.51199   0.73778   1.000
    O841    O    0.41184   0.44427   0.74823   1.000
    O842    O    0.87769   0.51199   0.73778   1.000
    O843    O    0.91186   0.44427   0.74823   1.000
    O844    O    0.37793   0.01193   0.73808   1.000
    O845    O    0.41189   0.94400   0.74830   1.000
    O846    O    0.87794   0.01193   0.73808   1.000
    O847    O    0.91190   0.94400   0.74830   1.000
    O848    O    0.12798   0.71212   0.72434   1.000
    O849    O    0.17047   0.68056   0.73439   1.000
    O850    O    0.62799   0.71212   0.72434   1.000
    O851    O    0.67048   0.68056   0.73439   1.000
    O852    O    0.62746   0.21204   0.72539   1.000
    O853    O    0.67021   0.18080   0.73566   1.000
    O854    O    0.12745   0.21204   0.72539   1.000
    O855    O    0.17020   0.18080   0.73566   1.000
    O856    O    0.52458   0.90471   0.74427   1.000
    O857    O    0.02456   0.90471   0.74427   1.000
    O858    O    0.52454   0.40507   0.74460   1.000
    O859    O    0.02453   0.40507   0.74460   1.000
    O860    O    0.87399   0.58654   0.74369   1.000
    O861    O    0.87013   0.64634   0.74598   1.000
    O862    O    0.37398   0.58654   0.74369   1.000
    O863    O    0.37012   0.64634   0.74598   1.000
    O864    O    0.87498   0.08645   0.74417   1.000
    O865    O    0.87150   0.14627   0.74641   1.000
    O866    O    0.37497   0.08645   0.74417   1.000
    O867    O    0.37149   0.14627   0.74641   1.000
    O868    O    0.86476   0.69744   0.75272   1.000
    O869    O    0.36474   0.69744   0.75272   1.000
    O870    O    0.36613   0.19736   0.75305   1.000
    O871    O    0.86614   0.19736   0.75305   1.000
    O872    O    0.57989   0.72020   0.75754   1.000
    O873    O    0.61364   0.77387   0.78003   1.000
    O874    O    0.07988   0.72020   0.75754   1.000
    O875    O    0.11362   0.77387   0.78003   1.000
    O876    O    0.07946   0.22011   0.75877   1.000
    O877    O    0.11322   0.27391   0.78049   1.000
    O878    O    0.57947   0.22011   0.75877   1.000
    O879    O    0.61323   0.27391   0.78049   1.000
    O880    O    0.72485   0.37674   0.75355   1.000
    O881    O    0.66062   0.33851   0.78125   1.000
    O882    O    0.22484   0.37674   0.75355   1.000
    O883    O    0.16061   0.33851   0.78125   1.000
    O884    O    0.72496   0.87677   0.75368   1.000
    O885    O    0.66080   0.83839   0.78129   1.000
    O886    O    0.22495   0.87677   0.75368   1.000
    O887    O    0.16079   0.83839   0.78129   1.000
    O888    O    0.77043   0.38870   0.79322   1.000
    O889    O    0.27041   0.38870   0.79322   1.000
    O890    O    0.27044   0.88885   0.79340   1.000
    O891    O    0.77046   0.88885   0.79340   1.000
    O892    O    0.35191   0.55856   0.78879   1.000
    O893    O    0.39640   0.55965   0.78896   1.000
    O894    O    0.85192   0.55856   0.78879   1.000
    O895    O    0.89642   0.55965   0.78896   1.000
    O896    O    0.85212   0.05860   0.78888   1.000
    O897    O    0.89662   0.05938   0.78978   1.000
    O898    O    0.35210   0.05860   0.78888   1.000
    O899    O    0.39660   0.05938   0.78978   1.000
    O900    O    0.47595   0.91028   0.78110   1.000
    O901    O    0.52179   0.88026   0.80272   1.000
    O902    O    0.97595   0.91028   0.78110   1.000
    O903    O    0.02178   0.88026   0.80272   1.000
    O904    O    0.47593   0.41076   0.78129   1.000
    O905    O    0.52176   0.38075   0.80314   1.000
    O906    O    0.97593   0.41076   0.78129   1.000
    O907    O    0.02175   0.38075   0.80314   1.000
    O908    O    0.84101   0.67854   0.79198   1.000
    O909    O    0.89863   0.68370   0.80360   1.000
    O910    O    0.34099   0.67854   0.79198   1.000
    O911    O    0.39862   0.68370   0.80360   1.000
    O912    O    0.84199   0.17851   0.79197   1.000
    O913    O    0.89948   0.18368   0.80442   1.000
    O914    O    0.34198   0.17851   0.79197   1.000
    O915    O    0.39947   0.18368   0.80442   1.000
    O916    O    0.43324   0.41095   0.82904   1.000
    O917    O    0.93325   0.41095   0.82904   1.000
    O918    O    0.43324   0.91032   0.82884   1.000
    O919    O    0.93326   0.91032   0.82884   1.000
    O920    O    0.58138   0.83805   0.82581   1.000
    O921    O    0.64072   0.80153   0.87599   1.000
    O922    O    0.08125   0.33843   0.82605   1.000
    O923    O    0.14061   0.30163   0.87589   1.000
    O924    O    0.08137   0.83805   0.82581   1.000
    O925    O    0.14070   0.80153   0.87599   1.000
    O926    O    0.58126   0.33843   0.82605   1.000
    O927    O    0.64062   0.30163   0.87589   1.000
    O928    O    0.96027   0.67562   0.82621   1.000
    O929    O    0.46027   0.67562   0.82621   1.000
    O930    O    0.96076   0.17545   0.82834   1.000
    O931    O    0.46076   0.17545   0.82834   1.000
    O932    O    0.50705   0.86176   0.86399   1.000
    O933    O    0.00705   0.86176   0.86399   1.000
    O934    O    0.42552   0.71165   0.86661   1.000
    O935    O    0.92554   0.71165   0.86661   1.000
    O936    O    0.50702   0.36242   0.86449   1.000
    O937    O    0.00702   0.36242   0.86449   1.000
    O938    O    0.92591   0.21209   0.86735   1.000
    O939    O    0.42590   0.21209   0.86735   1.000
    O940    O    0.45192   0.88020   0.88120   1.000
    O941    O    0.39847   0.90443   0.88364   1.000
    O942    O    0.95193   0.88020   0.88120   1.000
    O943    O    0.89848   0.90443   0.88364   1.000
    O944    O    0.45190   0.38094   0.88168   1.000
    O945    O    0.39847   0.40522   0.88404   1.000
    O946    O    0.95192   0.38094   0.88168   1.000
    O947    O    0.89848   0.40522   0.88404   1.000
    O948    O    0.98153   0.84404   0.93440   1.000
    O949    O    0.48152   0.84404   0.93440   1.000
    O950    O    0.98145   0.34483   0.93500   1.000
    O951    O    0.48144   0.34483   0.93500   1.000
    O952    O    0.39449   0.74273   0.90472   1.000
    O953    O    0.44906   0.74298   0.92951   1.000
    O954    O    0.89450   0.74273   0.90472   1.000
    O955    O    0.94908   0.74298   0.92951   1.000
    O956    O    0.89471   0.24362   0.90455   1.000
    O957    O    0.94921   0.24383   0.92987   1.000
    O958    O    0.39470   0.24362   0.90455   1.000
    O959    O    0.44920   0.24383   0.92987   1.000
    O960    O    0.74541   0.27581   0.92851   1.000
    O961    O    0.24540   0.27581   0.92851   1.000
    O962    O    0.74554   0.77627   0.93034   1.000
    O963    O    0.24553   0.77627   0.93034   1.000
    O964    O    0.50339   0.74329   0.94562   1.000
    O965    O    0.00339   0.74329   0.94562   1.000
    O966    O    0.50347   0.24424   0.94617   1.000
    O967    O    0.00347   0.24424   0.94617   1.000
    O968    O    0.18572   0.28143   0.94301   1.000
    O969    O    0.68574   0.28143   0.94301   1.000
    O970    O    0.68566   0.78166   0.94379   1.000
    O971    O    0.18565   0.78166   0.94379   1.000
    O972    O    0.98052   0.78950   0.96670   1.000
    O973    O    0.48050   0.78950   0.96670   1.000
    O974    O    0.48046   0.29035   0.96729   1.000
    O975    O    0.98047   0.29035   0.96729   1.000
loop_
    _geom_bond_atom_site_label_1
    _geom_bond_atom_site_label_2
    _geom_bond_distance
    _geom_bond_site_symmetry_2
    _ccdc_geom_bond_type
    C137   O464      0.54960  1_554   S
    C303   O464      0.54960  1_655   S
    C139   O465      0.54979  1_554   S
    C301   O465      0.54979      .   S
    C138   O466      0.54982  1_554   S
    C300   O466      0.54982      .   S
    C136   O467      0.54961  1_554   S
    C302   O467      0.54961  1_655   S
    C133   O468      0.55073  1_554   S
    C301   O468      0.55073      .   S
    C135   O469      0.55073  1_554   S
    C303   O469      0.55073      .   S
    C132   O470      0.55074  1_554   S
    C300   O470      0.55074      .   S
    C134   O471      0.55074  1_554   S
    C302   O471      0.55074      .   S
    C230   O472      0.77770      .   S
    C226   O472      0.77770      .   S
    C230   O473      0.74632      .   S
    C218   O473      0.74632      .   S
    C230   O474      0.55079      .   S
    C38    O474      0.55079  1_556   S
    C230   O475      0.54985      .   S
    C42    O475      0.54985  1_556   S
    C228   O476      0.77770      .   S
    C224   O476      0.77770      .   S
    C228   O477      0.74631      .   S
    C216   O477      0.74631      .   S
    C228   O478      0.55079      .   S
    C36    O478      0.55079  1_556   S
    C228   O479      0.54986      .   S
    C40    O479      0.54986  1_556   S
    C231   O480      0.77763      .   S
    C227   O480      0.77763      .   S
    C231   O481      0.74565      .   S
    C219   O481      0.74565      .   S
    C231   O482      0.55078      .   S
    C39    O482      0.55078  1_556   S
    C231   O483      0.54982      .   S
    C43    O483      0.54982  1_556   S
    C229   O484      0.77763      .   S
    C225   O484      0.77763      .   S
    C229   O485      0.74565      .   S
    C217   O485      0.74565      .   S
    C229   O486      0.55077      .   S
    C37    O486      0.55077  1_556   S
    C229   O487      0.54982      .   S
    C41    O487      0.54982  1_556   S
    C226   O488      0.54791      .   S
    C34    O488      0.54791      .   S
    C226   O489      0.72712      .   S
    C378   O489      0.72712      .   S
    C226   O490      0.76924  1_554   S
    C222   O490      0.76924      .   S
    C224   O491      0.54791      .   S
    C32    O491      0.54791      .   S
    C224   O492      0.72712      .   S
    C376   O492      0.72712      .   S
    C224   O493      0.76924  1_554   S
    C220   O493      0.76924      .   S
    C227   O494      0.54789      .   S
    C35    O494      0.54789      .   S
    C227   O495      0.72706      .   S
    C379   O495      0.72706      .   S
    C227   O496      0.76904  1_554   S
    C223   O496      0.76904      .   S
    C225   O497      0.54790      .   S
    C33    O497      0.54790      .   S
    C225   O498      0.72706      .   S
    C377   O498      0.72706      .   S
    C225   O499      0.76904  1_554   S
    C221   O499      0.76904      .   S
    C295   O500      0.64611      .   S
    C443   O500      0.64611      .   S
    C295   O501      0.62531      .   S
    C445   O501      0.62531  1_455   S
    C295   O502      0.76929      .   S
    C299   O502      0.76929  1_556   S
    C293   O503      0.64611      .   S
    C441   O503      0.64611      .   S
    C293   O504      0.62550      .   S
    C447   O504      0.62550      .   S
    C293   O505      0.76929      .   S
    C297   O505      0.76929  1_556   S
    C294   O506      0.64622      .   S
    C442   O506      0.64622      .   S
    C294   O507      0.62511      .   S
    C444   O507      0.62511  1_455   S
    C294   O508      0.76914      .   S
    C298   O508      0.76914  1_556   S
    C292   O509      0.64621      .   S
    C440   O509      0.64621      .   S
    C292   O510      0.62530      .   S
    C446   O510      0.62530      .   S
    C292   O511      0.76914      .   S
    C296   O511      0.76914  1_556   S
    C443   O512      0.98494      .   S
    C7     O512      0.98494      .   S
    C441   O513      0.98494      .   S
    C5     O513      0.98494      .   S
    C442   O514      0.98470      .   S
    C6     O514      0.98470      .   S
    C440   O515      0.98470      .   S
    C4     O515      0.98470      .   S
    C72    O516      0.51863      .   S
    C376   O516      0.51863      .   S
    C74    O517      0.51862      .   S
    C378   O517      0.51862      .   S
    C73    O518      0.51875      .   S
    C377   O518      0.51875      .   S
    C75    O519      0.51876      .   S
    C379   O519      0.51876      .   S
    C378   O520      0.67343      .   S
    C258   O520      0.67343      .   S
    C376   O521      0.67343      .   S
    C256   O521      0.67343      .   S
    C379   O522      0.67354      .   S
    C259   O522      0.67354      .   S
    C377   O523      0.67354      .   S
    C257   O523      0.67354      .   S
    C30    O524      0.54234      .   S
    C214   O524      0.54234      .   S
    C28    O525      0.54234      .   S
    C212   O525      0.54234      .   S
    C29    O526      0.54202      .   S
    C213   O526      0.54202      .   S
    C31    O527      0.54203      .   S
    C215   O527      0.54203      .   S
    C216   O528      0.68878      .   S
    C212   O528      0.68878      .   S
    C216   O529      0.69536      .   S
    C364   O529      0.69536      .   S
    C218   O530      0.68878      .   S
    C214   O530      0.68878      .   S
    C218   O531      0.69536      .   S
    C366   O531      0.69536      .   S
    C217   O532      0.68864      .   S
    C213   O532      0.68864      .   S
    C217   O533      0.69515      .   S
    C365   O533      0.69515      .   S
    C219   O534      0.68863      .   S
    C215   O534      0.68863      .   S
    C219   O535      0.69516      .   S
    C367   O535      0.69516      .   S
    C214   O536      0.69269      .   S
    C362   O536      0.69269      .   S
    C212   O537      0.69269      .   S
    C360   O537      0.69269      .   S
    C215   O538      0.69249      .   S
    C363   O538      0.69249      .   S
    C213   O539      0.69249      .   S
    C361   O539      0.69249      .   S
    C258   O540      0.62807      .   S
    C430   O540      0.62807      .   S
    C258   O541      0.76229      .   S
    C234   O541      0.76229      .   S
    C256   O542      0.62807      .   S
    C428   O542      0.62807      .   S
    C256   O543      0.76229      .   S
    C232   O543      0.76229      .   S
    C259   O544      0.62788      .   S
    C431   O544      0.62788      .   S
    C259   O545      0.76224      .   S
    C235   O545      0.76224      .   S
    C257   O546      0.62788      .   S
    C429   O546      0.62788      .   S
    C257   O547      0.76224      .   S
    C233   O547      0.76224      .   S
    C366   O548      1.00663      .   S
    C6     O548      1.00663      .   S
    C366   O549      0.67548      .   S
    C210   O549      0.67548      .   S
    C364   O550      1.00663      .   S
    C4     O550      1.00663      .   S
    C364   O551      0.67548      .   S
    C208   O551      0.67548      .   S
    C367   O552      1.00643      .   S
    C7     O552      1.00643      .   S
    C367   O553      0.67577      .   S
    C211   O553      0.67577      .   S
    C365   O554      1.00643      .   S
    C5     O554      1.00643      .   S
    C365   O555      0.67577      .   S
    C209   O555      0.67577      .   S
    C191   O556      0.54097      .   S
    C339   O556      0.54097      .   S
    C189   O557      0.54097      .   S
    C337   O557      0.54097      .   S
    C190   O558      0.54099      .   S
    C338   O558      0.54099      .   S
    C188   O559      0.54098      .   S
    C336   O559      0.54098      .   S
    C6     O560      0.99618      .   S
    C390   O560      0.99618      .   S
    C6     O561      1.04278      .   S
    C386   O561      1.04278      .   S
    C4     O562      0.99618      .   S
    C388   O562      0.99618      .   S
    C4     O563      1.04278      .   S
    C384   O563      1.04278      .   S
    C5     O564      0.99653      .   S
    C389   O564      0.99653      .   S
    C5     O565      1.04368      .   S
    C385   O565      1.04368      .   S
    C7     O566      0.99653      .   S
    C391   O566      0.99653      .   S
    C7     O567      1.04368      .   S
    C387   O567      1.04368      .   S
    C51    O568      0.55049      .   S
    C235   O568      0.55049      .   S
    C49    O569      0.55049      .   S
    C233   O569      0.55049      .   S
    C50    O570      0.55053      .   S
    C234   O570      0.55053      .   S
    C48    O571      0.55054      .   S
    C232   O571      0.55054      .   S
    C58    O572      0.51473      .   S
    C370   O572      0.51473      .   S
    C56    O573      0.51473      .   S
    C368   O573      0.51473      .   S
    C53    O574      0.51352      .   S
    C369   O574      0.51352      .   S
    C55    O575      0.51351      .   S
    C371   O575      0.51351      .   S
    C59    O576      0.51457      .   S
    C371   O576      0.51457      .   S
    C57    O577      0.51456      .   S
    C369   O577      0.51456      .   S
    C54    O578      0.51373      .   S
    C370   O578      0.51373      .   S
    C52    O579      0.51373      .   S
    C368   O579      0.51373      .   S
    C360   O580      0.67398      .   S
    C208   O580      0.67398      .   S
    C360   O581      1.00200      .   S
    C0     O581      1.00200      .   S
    C362   O582      0.67398      .   S
    C210   O582      0.67398      .   S
    C362   O583      1.00200      .   S
    C2     O583      1.00200      .   S
    C361   O584      0.67398      .   S
    C209   O584      0.67398      .   S
    C361   O585      1.00117      .   S
    C1     O585      1.00117      .   S
    C363   O586      0.67398      .   S
    C211   O586      0.67398      .   S
    C363   O587      1.00117      .   S
    C3     O587      1.00117      .   S
    C114   O588      0.52047      .   S
    C386   O588      0.52047      .   S
    C112   O589      0.52047      .   S
    C384   O589      0.52047      .   S
    C232   O590      0.55148      .   S
    C44    O590      0.55148      .   S
    C232   O591      0.76230      .   S
    C236   O591      0.76230      .   S
    C234   O592      0.55148      .   S
    C46    O592      0.55148      .   S
    C234   O593      0.76230      .   S
    C238   O593      0.76230      .   S
    C115   O594      0.52052      .   S
    C387   O594      0.52052      .   S
    C113   O595      0.52050      .   S
    C385   O595      0.52050      .   S
    C235   O596      0.55143      .   S
    C47    O596      0.55143      .   S
    C235   O597      0.76236      .   S
    C239   O597      0.76236      .   S
    C233   O598      0.55143      .   S
    C45    O598      0.55143      .   S
    C233   O599      0.76236      .   S
    C237   O599      0.76236      .   S
    C210   O600      0.54253      .   S
    C26    O600      0.54253      .   S
    C208   O601      0.54253      .   S
    C24    O601      0.54253      .   S
    C211   O602      0.54252      .   S
    C27    O602      0.54252      .   S
    C209   O603      0.54253      .   S
    C25    O603      0.54253      .   S
    C370   O604      0.74507      .   S
    C238   O604      0.74507      .   S
    C370   O605      1.05755      .   S
    C3     O605      1.05755      .   S
    C368   O606      0.74508      .   S
    C236   O606      0.74508      .   S
    C368   O607      1.05754      .   S
    C1     O607      1.05754      .   S
    C371   O608      0.74516      .   S
    C239   O608      0.74516      .   S
    C371   O609      1.05658      .   S
    C2     O609      1.05658  1_545   S
    C369   O610      0.74516      .   S
    C237   O610      0.74516      .   S
    C369   O611      1.05658      .   S
    C0     O611      1.05658  1_545   S
    C182   O612      0.54976      .   S
    C334   O612      0.54976      .   S
    C180   O613      0.54976      .   S
    C332   O613      0.54976      .   S
    C181   O614      0.54974      .   S
    C333   O614      0.54974      .   S
    C183   O615      0.54973      .   S
    C335   O615      0.54973      .   S
    C339   O616      0.67270      .   S
    C389   O616      0.67270      .   S
    C339   O617      0.67704      .   S
    C407   O617      0.67704      .   S
    C337   O618      0.67250  1_455   S
    C391   O618      0.67250      .   S
    C337   O619      0.67704      .   S
    C405   O619      0.67704      .   S
    C338   O620      0.67275      .   S
    C388   O620      0.67275      .   S
    C338   O621      0.67707      .   S
    C406   O621      0.67707      .   S
    C336   O622      0.67254  1_455   S
    C390   O622      0.67254      .   S
    C336   O623      0.67707      .   S
    C404   O623      0.67707      .   S
    C391   O624      0.69217      .   S
    C319   O624      0.69217      .   S
    C389   O625      0.69217      .   S
    C317   O625      0.69217      .   S
    C390   O626      0.69216      .   S
    C318   O626      0.69216      .   S
    C388   O627      0.69216      .   S
    C316   O627      0.69216      .   S
    C386   O628      0.74130      .   S
    C334   O628      0.74130      .   S
    C386   O629      0.51393      .   S
    C118   O629      0.51393      .   S
    C384   O630      0.74131      .   S
    C332   O630      0.74131      .   S
    C384   O631      0.51393      .   S
    C116   O631      0.51393      .   S
    C385   O632      0.74144      .   S
    C333   O632      0.74144      .   S
    C385   O633      0.51396      .   S
    C117   O633      0.51396      .   S
    C387   O634      0.74144      .   S
    C335   O634      0.74144      .   S
    C387   O635      0.51396      .   S
    C119   O635      0.51396      .   S
    C236   O636      0.54859      .   S
    C64    O636      0.54859      .   S
    C236   O637      0.54823      .   S
    C60    O637      0.54823      .   S
    C238   O638      0.54859      .   S
    C66    O638      0.54859      .   S
    C238   O639      0.54823      .   S
    C62    O639      0.54823      .   S
    C237   O640      0.54824      .   S
    C65    O640      0.54824      .   S
    C237   O641      0.54811      .   S
    C61    O641      0.54811      .   S
    C239   O642      0.54859      .   S
    C67    O642      0.54859      .   S
    C239   O643      0.54812      .   S
    C63    O643      0.54812      .   S
    C334   O644      0.54860      .   S
    C186   O644      0.54860      .   S
    C334   O645      0.76428      .   S
    C342   O645      0.76428      .   S
    C332   O646      0.54860      .   S
    C184   O646      0.54860      .   S
    C332   O647      0.76428      .   S
    C340   O647      0.76428      .   S
    C333   O648      0.54868      .   S
    C185   O648      0.54868      .   S
    C333   O649      0.76447      .   S
    C341   O649      0.76447      .   S
    C335   O650      0.54868      .   S
    C187   O650      0.54868      .   S
    C335   O651      0.76447      .   S
    C343   O651      0.76447      .   S
    C2     O652      1.00923      .   S
    C406   O652      1.00923      .   S
    C2     O653      0.97874      .   S
    C426   O653      0.97874      .   S
    C0     O654      1.00923      .   S
    C404   O654      1.00923      .   S
    C0     O655      0.97874      .   S
    C424   O655      0.97874      .   S
    C1     O656      1.00890      .   S
    C405   O656      1.00890      .   S
    C1     O657      0.97798      .   S
    C425   O657      0.97798      .   S
    C3     O658      1.00891      .   S
    C407   O658      1.00891      .   S
    C3     O659      0.97798      .   S
    C427   O659      0.97798      .   S
    C407   O660      0.69732      .   S
    C313   O660      0.69732      .   S
    C405   O661      0.69716      .   S
    C315   O661      0.69716  1_655   S
    C406   O662      0.69739      .   S
    C312   O662      0.69739      .   S
    C404   O663      0.69724      .   S
    C314   O663      0.69724  1_655   S
    C192   O664      0.54943      .   S
    C340   O664      0.54943      .   S
    C194   O665      0.54943      .   S
    C342   O665      0.54943      .   S
    C193   O666      0.54944      .   S
    C341   O666      0.54944      .   S
    C195   O667      0.54944      .   S
    C343   O667      0.54944      .   S
    C316   O668      0.68862      .   S
    C312   O668      0.68862      .   S
    C316   O669      0.54259      .   S
    C164   O669      0.54259      .   S
    C318   O670      0.68862      .   S
    C314   O670      0.68862      .   S
    C318   O671      0.54259      .   S
    C166   O671      0.54259      .   S
    C319   O672      0.68864      .   S
    C315   O672      0.68864      .   S
    C319   O673      0.54262      .   S
    C167   O673      0.54262      .   S
    C317   O674      0.68864      .   S
    C313   O674      0.68864      .   S
    C317   O675      0.54261      .   S
    C165   O675      0.54261      .   S
    C342   O676      0.76175      .   S
    C350   O676      0.76175      .   S
    C342   O677      0.55234      .   S
    C198   O677      0.55234      .   S
    C340   O678      0.76175      .   S
    C348   O678      0.76175      .   S
    C340   O679      0.55234      .   S
    C196   O679      0.55234      .   S
    C343   O680      0.76181      .   S
    C351   O680      0.76181      .   S
    C343   O681      0.55228      .   S
    C199   O681      0.55228      .   S
    C341   O682      0.76181      .   S
    C349   O682      0.76181      .   S
    C341   O683      0.55229      .   S
    C197   O683      0.55229      .   S
    C315   O684      0.74644      .   S
    C347   O684      0.74644      .   S
    C313   O685      0.74644      .   S
    C345   O685      0.74644      .   S
    C314   O686      0.74658      .   S
    C346   O686      0.74658      .   S
    C312   O687      0.74658      .   S
    C344   O687      0.74658      .   S
    C435   O688      0.62457      .   S
    C251   O688      0.62457      .   S
    C433   O689      0.62458      .   S
    C249   O689      0.62458      .   S
    C434   O690      0.62462      .   S
    C250   O690      0.62462      .   S
    C432   O691      0.62461      .   S
    C248   O691      0.62461      .   S
    C348   O692      0.67901      .   S
    C412   O692      0.67901      .   S
    C348   O693      0.62228      .   S
    C462   O693      0.62228      .   S
    C350   O694      0.67901      .   S
    C414   O694      0.67901      .   S
    C350   O695      0.62208      .   S
    C460   O695      0.62208      .   S
    C349   O696      0.67923      .   S
    C413   O696      0.67923      .   S
    C349   O697      0.62226      .   S
    C463   O697      0.62226      .   S
    C351   O698      0.67923      .   S
    C415   O698      0.67923      .   S
    C351   O699      0.62208      .   S
    C461   O699      0.62208      .   S
    C177   O700      0.51684      .   S
    C413   O700      0.51684      .   S
    C179   O701      0.51684      .   S
    C415   O701      0.51684      .   S
    C178   O702      0.51690      .   S
    C414   O702      0.51690      .   S
    C176   O703      0.51690      .   S
    C412   O703      0.51690      .   S
    C425   O704      0.64814      .   S
    C249   O704      0.64814      .   S
    C427   O705      0.64815      .   S
    C251   O705      0.64815      .   S
    C424   O706      0.64818      .   S
    C248   O706      0.64818      .   S
    C426   O707      0.64818      .   S
    C250   O707      0.64818      .   S
    C414   O708      0.72711      .   S
    C324   O708      0.72711      .   S
    C412   O709      0.72728      .   S
    C326   O709      0.72728      .   S
    C415   O710      0.72720      .   S
    C325   O710      0.72720      .   S
    C413   O711      0.72736      .   S
    C327   O711      0.72736      .   S
    C249   O712      0.77264      .   S
    C253   O712      0.77264      .   S
    C251   O713      0.77264      .   S
    C255   O713      0.77264      .   S
    C248   O714      0.77278      .   S
    C252   O714      0.77278      .   S
    C250   O715      0.77278      .   S
    C254   O715      0.77278      .   S
    C172   O716      0.54850      .   S
    C324   O716      0.54850  1_655   S
    C174   O717      0.54850      .   S
    C326   O717      0.54850      .   S
    C173   O718      0.54851      .   S
    C325   O718      0.54851  1_655   S
    C175   O719      0.54850      .   S
    C327   O719      0.54850      .   S
    C347   O720      0.77276      .   S
    C324   O720      0.77276      .   S
    C347   O721      0.54934  1_655   S
    C205   O721      0.54934      .   S
    C347   O722      0.55089      .   S
    C203   O722      0.55089      .   S
    C345   O723      0.77276      .   S
    C326   O723      0.77276      .   S
    C345   O724      0.54953      .   S
    C207   O724      0.54953      .   S
    C345   O725      0.55090      .   S
    C201   O725      0.55090      .   S
    C346   O726      0.77277      .   S
    C325   O726      0.77277  1_565   S
    C346   O727      0.54933  1_655   S
    C204   O727      0.54933      .   S
    C346   O728      0.55086      .   S
    C202   O728      0.55086      .   S
    C344   O729      0.77278      .   S
    C327   O729      0.77278  1_565   S
    C344   O730      0.54952      .   S
    C206   O730      0.54952      .   S
    C344   O731      0.55086      .   S
    C200   O731      0.55086      .   S
    C324   O732      0.77295      .   S
    C322   O732      0.77295      .   S
    C326   O733      0.77297      .   S
    C320   O733      0.77297      .   S
    C325   O734      0.77284      .   S
    C323   O734      0.77284      .   S
    C327   O735      0.77287      .   S
    C321   O735      0.77287      .   S
    C104   O736      0.55085      .   S
    C272   O736      0.55085      .   S
    C106   O737      0.55085      .   S
    C274   O737      0.55085      .   S
    C105   O738      0.55086      .   S
    C273   O738      0.55086      .   S
    C107   O739      0.55085      .   S
    C275   O739      0.55085      .   S
    C108   O740      0.54969      .   S
    C272   O740      0.54969      .   S
    C110   O741      0.54969      .   S
    C274   O741      0.54969      .   S
    C109   O742      0.54966      .   S
    C273   O742      0.54966      .   S
    C111   O743      0.54965      .   S
    C275   O743      0.54965      .   S
    C255   O744      0.77237      .   S
    C274   O744      0.77237      .   S
    C255   O745      0.54847      .   S
    C79    O745      0.54847      .   S
    C255   O746      0.72738      .   S
    C383   O746      0.72738      .   S
    C253   O747      0.77237      .   S
    C272   O747      0.77237      .   S
    C253   O748      0.54847      .   S
    C77    O748      0.54847      .   S
    C253   O749      0.72737      .   S
    C381   O749      0.72737      .   S
    C254   O750      0.77280  1_545   S
    C275   O750      0.77280      .   S
    C254   O751      0.54847      .   S
    C78    O751      0.54847      .   S
    C254   O752      0.72739      .   S
    C382   O752      0.72739      .   S
    C252   O753      0.77279  1_545   S
    C273   O753      0.77279      .   S
    C252   O754      0.54846      .   S
    C76    O754      0.54846      .   S
    C252   O755      0.72739      .   S
    C380   O755      0.72739      .   S
    C274   O756      0.74656      .   S
    C242   O756      0.74656      .   S
    C272   O757      0.74656      .   S
    C240   O757      0.74656      .   S
    C273   O758      0.74657      .   S
    C241   O758      0.74657      .   S
    C275   O759      0.74657      .   S
    C243   O759      0.74657      .   S
    C322   O760      0.64825      .   S
    C450   O760      0.64825      .   S
    C322   O761      0.62426  1_655   S
    C456   O761      0.62426      .   S
    C320   O762      0.64824      .   S
    C448   O762      0.64824      .   S
    C320   O763      0.62444      .   S
    C458   O763      0.62444      .   S
    C323   O764      0.64821      .   S
    C451   O764      0.64821      .   S
    C323   O765      0.62429  1_655   S
    C457   O765      0.62429      .   S
    C321   O766      0.64820      .   S
    C449   O766      0.64820      .   S
    C321   O767      0.62448      .   S
    C459   O767      0.62448      .   S
    C437   O768      0.62245      .   S
    C277   O768      0.62245      .   S
    C439   O769      0.62245      .   S
    C279   O769      0.62245      .   S
    C438   O770      0.62225      .   S
    C278   O770      0.62225      .   S
    C436   O771      0.62224      .   S
    C276   O771      0.62224      .   S
    C381   O772      0.51669      .   S
    C81    O772      0.51669      .   S
    C381   O773      0.67920      .   S
    C277   O773      0.67920      .   S
    C383   O774      0.51668      .   S
    C83    O774      0.51668      .   S
    C383   O775      0.67920      .   S
    C279   O775      0.67920      .   S
    C380   O776      0.51677      .   S
    C80    O776      0.51677      .   S
    C380   O777      0.67899      .   S
    C276   O777      0.67899      .   S
    C382   O778      0.51677      .   S
    C82    O778      0.51677      .   S
    C382   O779      0.67899      .   S
    C278   O779      0.67899      .   S
    C450   O780      0.97996      .   S
    C10    O780      0.97996      .   S
    C448   O781      0.97996      .   S
    C8     O781      0.97996      .   S
    C451   O782      0.98009      .   S
    C11    O782      0.98009      .   S
    C449   O783      0.98009      .   S
    C9     O783      0.98009      .   S
    C103   O784      0.55224      .   S
    C271   O784      0.55224      .   S
    C101   O785      0.55224      .   S
    C269   O785      0.55224      .   S
    C102   O786      0.55232      .   S
    C270   O786      0.55232      .   S
    C100   O787      0.55231      .   S
    C268   O787      0.55231      .   S
    C277   O788      0.76149      .   S
    C269   O788      0.76149      .   S
    C279   O789      0.76149      .   S
    C271   O789      0.76149      .   S
    C276   O790      0.76159      .   S
    C268   O790      0.76159      .   S
    C278   O791      0.76158      .   S
    C270   O791      0.76158      .   S
    C70    O792      0.54266      .   S
    C246   O792      0.54266      .   S
    C68    O793      0.54266      .   S
    C244   O793      0.54266      .   S
    C71    O794      0.54267      .   S
    C247   O794      0.54267      .   S
    C69    O795      0.54268      .   S
    C245   O795      0.54268      .   S
    C240   O796      0.68855      .   S
    C244   O796      0.68855      .   S
    C240   O797      0.69745      .   S
    C372   O797      0.69745      .   S
    C242   O798      0.68855      .   S
    C246   O798      0.68855      .   S
    C242   O799      0.69745      .   S
    C374   O799      0.69745      .   S
    C241   O800      0.68858      .   S
    C245   O800      0.68858      .   S
    C241   O801      0.69745      .   S
    C373   O801      0.69745      .   S
    C243   O802      0.68859      .   S
    C247   O802      0.68859      .   S
    C243   O803      0.69745      .   S
    C375   O803      0.69745      .   S
    C271   O804      0.54945      .   S
    C99    O804      0.54945      .   S
    C271   O805      0.76443      .   S
    C263   O805      0.76443      .   S
    C269   O806      0.54946      .   S
    C97    O806      0.54946      .   S
    C269   O807      0.76443      .   S
    C261   O807      0.76443      .   S
    C270   O808      0.54943      .   S
    C98    O808      0.54943      .   S
    C270   O809      0.76422      .   S
    C262   O809      0.76422      .   S
    C268   O810      0.54943      .   S
    C96    O810      0.54943      .   S
    C268   O811      0.76422      .   S
    C260   O811      0.76422      .   S
    C246   O812      0.69199      .   S
    C358   O812      0.69199      .   S
    C244   O813      0.69199      .   S
    C356   O813      0.69199      .   S
    C245   O814      0.69202      .   S
    C357   O814      0.69202      .   S
    C247   O815      0.69202      .   S
    C359   O815      0.69202      .   S
    C158   O816      0.54820      .   S
    C310   O816      0.54820      .   S
    C156   O817      0.54819      .   S
    C308   O817      0.54819      .   S
    C159   O818      0.54814      .   S
    C311   O818      0.54814      .   S
    C157   O819      0.54815      .   S
    C309   O819      0.54815      .   S
    C89    O820      0.54866      .   S
    C261   O820      0.54866      .   S
    C91    O821      0.54866      .   S
    C263   O821      0.54866      .   S
    C88    O822      0.54861      .   S
    C260   O822      0.54861      .   S
    C90    O823      0.54861      .   S
    C262   O823      0.54861      .   S
    C161   O824      0.54855      .   S
    C309   O824      0.54855      .   S
    C163   O825      0.54856      .   S
    C311   O825      0.54856      .   S
    C160   O826      0.54859      .   S
    C308   O826      0.54859      .   S
    C162   O827      0.54858      .   S
    C310   O827      0.54858      .   S
    C21    O828      0.51397      .   S
    C353   O828      0.51397      .   S
    C23    O829      0.51397      .   S
    C355   O829      0.51397      .   S
    C20    O830      0.51397      .   S
    C352   O830      0.51397      .   S
    C22    O831      0.51398      .   S
    C354   O831      0.51398      .   S
    C374   O832      1.01107      .   S
    C10    O832      1.01107      .   S
    C374   O833      0.67708      .   S
    C266   O833      0.67708      .   S
    C372   O834      1.01107      .   S
    C8     O834      1.01107      .   S
    C372   O835      0.67708      .   S
    C264   O835      0.67708      .   S
    C375   O836      1.01083      .   S
    C11    O836      1.01083      .   S
    C375   O837      0.67713      .   S
    C267   O837      0.67713      .   S
    C373   O838      1.01083      .   S
    C9     O838      1.01083      .   S
    C373   O839      0.67713      .   S
    C265   O839      0.67713      .   S
    C8     O840      1.05264      .   S
    C401   O840      1.05264      .   S
    C8     O841      1.00091      .   S
    C392   O841      1.00091      .   S
    C10    O842      1.05264      .   S
    C403   O842      1.05264      .   S
    C10    O843      1.00091      .   S
    C394   O843      1.00091      .   S
    C9     O844      1.05268  1_565   S
    C400   O844      1.05268      .   S
    C9     O845      1.00256      .   S
    C393   O845      1.00256      .   S
    C11    O846      1.05268  1_565   S
    C402   O846      1.05268      .   S
    C11    O847      1.00256      .   S
    C395   O847      1.00256      .   S
    C261   O848      0.74126      .   S
    C353   O848      0.74126      .   S
    C261   O849      0.54979      .   S
    C85    O849      0.54979      .   S
    C263   O850      0.74126      .   S
    C355   O850      0.74126      .   S
    C263   O851      0.54978      .   S
    C87    O851      0.54978      .   S
    C262   O852      0.74128      .   S
    C354   O852      0.74128      .   S
    C262   O853      0.54980      .   S
    C86    O853      0.54980      .   S
    C260   O854      0.74128      .   S
    C352   O854      0.74128      .   S
    C260   O855      0.54980      .   S
    C84    O855      0.54980      .   S
    C123   O856      0.54251      .   S
    C283   O856      0.54251      .   S
    C121   O857      0.54251      .   S
    C281   O857      0.54251      .   S
    C122   O858      0.54268      .   S
    C282   O858      0.54268      .   S
    C120   O859      0.54269      .   S
    C280   O859      0.54269      .   S
    C311   O860      0.74508      .   S
    C403   O860      0.74508      .   S
    C311   O861      0.76214      .   S
    C307   O861      0.76214      .   S
    C309   O862      0.74508      .   S
    C401   O862      0.74508      .   S
    C309   O863      0.76214      .   S
    C305   O863      0.76214      .   S
    C310   O864      0.74517      .   S
    C402   O864      0.74517      .   S
    C310   O865      0.76202      .   S
    C306   O865      0.76202      .   S
    C308   O866      0.74517      .   S
    C400   O866      0.74517      .   S
    C308   O867      0.76202      .   S
    C304   O867      0.76202      .   S
    C143   O868      0.55149      .   S
    C307   O868      0.55149      .   S
    C141   O869      0.55149      .   S
    C305   O869      0.55149      .   S
    C140   O870      0.55146      .   S
    C304   O870      0.55146      .   S
    C142   O871      0.55146      .   S
    C306   O871      0.55146      .   S
    C355   O872      0.52057      .   S
    C19    O872      0.52057      .   S
    C355   O873      1.04198      .   S
    C15    O873      1.04198      .   S
    C353   O874      0.52057      .   S
    C17    O874      0.52057      .   S
    C353   O875      1.04198      .   S
    C13    O875      1.04198      .   S
    C352   O876      0.52050      .   S
    C16    O876      0.52050      .   S
    C352   O877      1.04169      .   S
    C12    O877      1.04169      .   S
    C354   O878      0.52050      .   S
    C18    O878      0.52050      .   S
    C354   O879      1.04169      .   S
    C14    O879      1.04169      .   S
    C358   O880      0.67289      .   S
    C266   O880      0.67289      .   S
    C358   O881      0.99592      .   S
    C14    O881      0.99592      .   S
    C356   O882      0.67288      .   S
    C264   O882      0.67288      .   S
    C356   O883      0.99592      .   S
    C12    O883      0.99592      .   S
    C359   O884      0.67285      .   S
    C267   O884      0.67285      .   S
    C359   O885      0.99609      .   S
    C15    O885      0.99609      .   S
    C357   O886      0.67285      .   S
    C265   O886      0.67285      .   S
    C357   O887      0.99609      .   S
    C13    O887      0.99609      .   S
    C266   O888      0.54116      .   S
    C94    O888      0.54116      .   S
    C264   O889      0.54116      .   S
    C92    O889      0.54116      .   S
    C265   O890      0.54104      .   S
    C93    O890      0.54104      .   S
    C267   O891      0.54104      .   S
    C95    O891      0.54104      .   S
    C401   O892      0.51369      .   S
    C149   O892      0.51369      .   S
    C401   O893      0.51476      .   S
    C153   O893      0.51476      .   S
    C403   O894      0.51369      .   S
    C151   O894      0.51369      .   S
    C403   O895      0.51476      .   S
    C155   O895      0.51476      .   S
    C402   O896      0.51358      .   S
    C150   O896      0.51358      .   S
    C402   O897      0.51468      .   S
    C154   O897      0.51468      .   S
    C400   O898      0.51358      .   S
    C148   O898      0.51358      .   S
    C400   O899      0.51468      .   S
    C152   O899      0.51468      .   S
    C283   O900      0.67412      .   S
    C393   O900      0.67412      .   S
    C283   O901      0.67566      .   S
    C399   O901      0.67566      .   S
    C281   O902      0.67390  1_455   S
    C395   O902      0.67390      .   S
    C281   O903      0.67567      .   S
    C397   O903      0.67567      .   S
    C282   O904      0.67370      .   S
    C392   O904      0.67370      .   S
    C282   O905      0.67529      .   S
    C398   O905      0.67529      .   S
    C280   O906      0.67348  1_455   S
    C394   O906      0.67348      .   S
    C280   O907      0.67529      .   S
    C396   O907      0.67529      .   S
    C307   O908      0.55048      .   S
    C147   O908      0.55048      .   S
    C307   O909      0.76226      .   S
    C331   O909      0.76226      .   S
    C305   O910      0.55047      .   S
    C145   O910      0.55047      .   S
    C305   O911      0.76226      .   S
    C329   O911      0.76226      .   S
    C306   O912      0.55048      .   S
    C146   O912      0.55048      .   S
    C306   O913      0.76204      .   S
    C330   O913      0.76204      .   S
    C304   O914      0.55047      .   S
    C144   O914      0.55047      .   S
    C304   O915      0.76205      .   S
    C328   O915      0.76205      .   S
    C392   O916      0.69470      .   S
    C284   O916      0.69470      .   S
    C394   O917      0.69470      .   S
    C286   O917      0.69470      .   S
    C393   O918      0.69262      .   S
    C285   O918      0.69262      .   S
    C395   O919      0.69262      .   S
    C287   O919      0.69262      .   S
    C15    O920      1.00627      .   S
    C399   O920      1.00627      .   S
    C15    O921      0.98502      .   S
    C419   O921      0.98502      .   S
    C12    O922      1.00710      .   S
    C396   O922      1.00710      .   S
    C12    O923      0.98473      .   S
    C416   O923      0.98473      .   S
    C13    O924      1.00626      .   S
    C397   O924      1.00626      .   S
    C13    O925      0.98502      .   S
    C417   O925      0.98502      .   S
    C14    O926      1.00711      .   S
    C398   O926      1.00711      .   S
    C14    O927      0.98472      .   S
    C418   O927      0.98472      .   S
    C453   O928      0.62807      .   S
    C331   O928      0.62807      .   S
    C455   O929      0.62828      .   S
    C329   O929      0.62828      .   S
    C452   O930      0.62799      .   S
    C330   O930      0.62799      .   S
    C454   O931      0.62819      .   S
    C328   O931      0.62819      .   S
    C399   O932      0.69532      .   S
    C289   O932      0.69532      .   S
    C397   O933      0.69516      .   S
    C291   O933      0.69516  1_655   S
    C329   O934      0.67337      .   S
    C409   O934      0.67337      .   S
    C331   O935      0.67337      .   S
    C411   O935      0.67337      .   S
    C398   O936      0.69562      .   S
    C288   O936      0.69562      .   S
    C396   O937      0.69546      .   S
    C290   O937      0.69546  1_655   S
    C330   O938      0.67293      .   S
    C410   O938      0.67293      .   S
    C328   O939      0.67293      .   S
    C408   O939      0.67293      .   S
    C285   O940      0.68874      .   S
    C289   O940      0.68874      .   S
    C285   O941      0.54200      .   S
    C125   O941      0.54200      .   S
    C287   O942      0.68874      .   S
    C291   O942      0.68874      .   S
    C287   O943      0.54199      .   S
    C127   O943      0.54199      .   S
    C284   O944      0.68879      .   S
    C288   O944      0.68879      .   S
    C284   O945      0.54214      .   S
    C124   O945      0.54214      .   S
    C286   O946      0.68879      .   S
    C290   O946      0.68879      .   S
    C286   O947      0.54214      .   S
    C126   O947      0.54214      .   S
    C291   O948      0.74614      .   S
    C303   O948      0.74614      .   S
    C289   O949      0.74614      .   S
    C301   O949      0.74614      .   S
    C290   O950      0.74637      .   S
    C302   O950      0.74637      .   S
    C288   O951      0.74637      .   S
    C300   O951      0.74637      .   S
    C409   O952      0.51865      .   S
    C169   O952      0.51865      .   S
    C409   O953      0.72705      .   S
    C297   O953      0.72705      .   S
    C411   O954      0.51866      .   S
    C171   O954      0.51866      .   S
    C411   O955      0.72705      .   S
    C299   O955      0.72705      .   S
    C410   O956      0.51870      .   S
    C170   O956      0.51870      .   S
    C410   O957      0.72744      .   S
    C298   O957      0.72744      .   S
    C408   O958      0.51871      .   S
    C168   O958      0.51871      .   S
    C408   O959      0.72744      .   S
    C296   O959      0.72744      .   S
    C422   O960      0.62564      .   S
    C222   O960      0.62564      .   S
    C420   O961      0.62564      .   S
    C220   O961      0.62564      .   S
    C423   O962      0.62522      .   S
    C223   O962      0.62522      .   S
    C421   O963      0.62523      .   S
    C221   O963      0.62523      .   S
    C131   O964      0.54794      .   S
    C297   O964      0.54794      .   S
    C129   O965      0.54774      .   S
    C299   O965      0.54774  1_655   S
    C130   O966      0.54793      .   S
    C296   O966      0.54793      .   S
    C128   O967      0.54773      .   S
    C298   O967      0.54773  1_655   S
    C416   O968      0.64612      .   S
    C220   O968      0.64612      .   S
    C418   O969      0.64613      .   S
    C222   O969      0.64613      .   S
    C419   O970      0.64623      .   S
    C223   O970      0.64623      .   S
    C417   O971      0.64623      .   S
    C221   O971      0.64623      .   S
    C299   O972      0.77805      .   S
    C303   O972      0.77805      .   S
    C297   O973      0.77805      .   S
    C301   O973      0.77805      .   S
    C296   O974      0.77769      .   S
    C300   O974      0.77769      .   S
    C298   O975      0.77769      .   S
    C302   O975      0.77769      .   S
