# CIF file generated by openbabel 2.4.90, see http://openbabel.sf.net
data_I
_chemical_name_common ''
_cell_length_a 7.962
_cell_length_b 14.332
_cell_length_c 14.571
_cell_angle_alpha 89.469
_cell_angle_beta 85.678
_cell_angle_gamma 89.185
_space_group_name_H-M_alt 'P 1'
_space_group_name_Hall 'P 1'
loop_
    _symmetry_equiv_pos_as_xyz
    x,y,z
loop_
    _atom_site_label
    _atom_site_type_symbol
    _atom_site_fract_x
    _atom_site_fract_y
    _atom_site_fract_z
    _atom_site_occupancy
    N0      N    0.02560   0.27562   0.27047   1.000
    N1      N    0.50552   0.28311   0.27053   1.000
    N2      N    0.50990   0.21742   0.77063   1.000
    N3      N    0.02559   0.22325   0.77278   1.000
    N4      N    0.49202   0.78251   0.22944   1.000
    N5      N    0.98729   0.77674   0.22729   1.000
    N6      N    0.50006   0.71676   0.72953   1.000
    N7      N    0.99218   0.72418   0.72978   1.000
    Zr8     Zr   0.25555   0.50375   0.50228   1.000
    O9      O    0.17882   0.40163   0.59907   1.000
    O10     O    0.33393   0.60528   0.40481   1.000
    Zr11    Zr   0.75011   0.49548   0.49828   1.000
    O12     O    0.82838   0.59787   0.40133   1.000
    O13     O    0.67051   0.39420   0.59558   1.000
    Zr14    Zr   0.74497   0.00422   0.99911   1.000
    O15     O    0.82711   0.90225   0.90283   1.000
    O16     O    0.66517   0.10587   0.09593   1.000
    Zr17    Zr   0.25724   0.99504   0.00051   1.000
    O18     O    0.17924   0.09720   0.09701   1.000
    O19     O    0.33814   0.89359   0.90384   1.000
    O20     O    0.66643   0.93649   0.06922   1.000
    O21     O    0.83162   0.07096   0.93025   1.000
    O22     O    0.33547   0.06305   0.93054   1.000
    O23     O    0.17305   0.92860   0.06951   1.000
    O24     O    0.67297   0.56319   0.56873   1.000
    O25     O    0.33284   0.43630   0.43165   1.000
    O26     O    0.83485   0.42848   0.42883   1.000
    O27     O    0.17401   0.57099   0.57163   1.000
loop_
    _geom_bond_atom_site_label_1
    _geom_bond_atom_site_label_2
    _geom_bond_distance
    _geom_bond_site_symmetry_2
    _ccdc_geom_bond_type
    Zr8    O9        2.08849      .   S
    N3     O9        3.73292      .   S
    Zr8    O10       2.09225      .   S
    N4     O10       3.74862      .   S
    Zr11   O12       2.09576      .   S
    N5     O12       3.75389      .   S
    Zr11   O13       2.09089      .   S
    N2     O13       3.74703      .   S
    Zr14   O15       2.09869  1_545   S
    N7     O15       3.75808      .   S
    Zr14   O16       2.09593  1_556   S
    N1     O16       3.75246      .   S
    Zr17   O18       2.09455  1_565   S
    N0     O18       3.74013      .   S
    Zr17   O19       2.09463  1_554   S
    N6     O19       3.75089      .   S
    Zr14   O20       1.50995  1_546   S
    N4     O20       3.42797      .   S
    Zr14   O21       1.51466      .   S
    N3     O21       3.44707  1_455   S
    Zr17   O22       1.51024  1_564   S
    N2     O22       3.42889      .   S
    Zr17   O23       1.50523      .   S
    N5     O23       3.41987  1_655   S
    N6     O24       3.42808      .   S
    Zr11   O24       1.50975      .   S
    N1     O25       3.42722      .   S
    Zr8    O25       1.50943      .   S
    N0     O26       3.44982  1_455   S
    Zr11   O26       1.51595      .   S
    N7     O27       3.42439  1_655   S
    Zr8    O27       1.50752      .   S
