# CIF file generated by openbabel 2.4.90, see http://openbabel.sf.net
data_I
_chemical_name_common ''
_cell_length_a 7.962
_cell_length_b 14.332
_cell_length_c 14.571
_cell_angle_alpha 89.469
_cell_angle_beta 85.678
_cell_angle_gamma 89.185
_space_group_name_H-M_alt 'P 1'
_space_group_name_Hall 'P 1'
loop_
    _symmetry_equiv_pos_as_xyz
    x,y,z
loop_
    _atom_site_label
    _atom_site_type_symbol
    _atom_site_fract_x
    _atom_site_fract_y
    _atom_site_fract_z
    _atom_site_occupancy
    N0      N    0.02560   0.27562   0.27047   1.000
    N1      N    0.50552   0.28311   0.27053   1.000
    N2      N    0.50990   0.21742   0.77063   1.000
    N3      N    0.02559   0.22325   0.77278   1.000
    N4      N    0.49202   0.78251   0.22944   1.000
    N5      N    0.98729   0.77674   0.22729   1.000
    N6      N    0.50006   0.71676   0.72953   1.000
    N7      N    0.99218   0.72418   0.72978   1.000
    Zr8     Zr   0.25555   0.50375   0.50228   1.000
    O9      O    0.33514   0.42070   0.44667   1.000
    O10     O    0.17882   0.40163   0.59907   1.000
    O11     O    0.17636   0.55556   0.58677   1.000
    O12     O    0.33055   0.45191   0.41663   1.000
    O13     O    0.17167   0.58643   0.55649   1.000
    O14     O    0.33393   0.60528   0.40481   1.000
    Zr15    Zr   0.75011   0.49548   0.49828   1.000
    O16     O    0.83250   0.44392   0.41369   1.000
    O17     O    0.82838   0.59787   0.40133   1.000
    O18     O    0.67069   0.57879   0.55371   1.000
    O19     O    0.83720   0.41304   0.44397   1.000
    O20     O    0.67051   0.39420   0.59558   1.000
    O21     O    0.67525   0.54759   0.58376   1.000
    Zr22    Zr   0.74497   0.00422   0.99911   1.000
    O23     O    0.82979   0.05572   0.91524   1.000
    O24     O    0.66498   0.92103   0.05430   1.000
    O25     O    0.82711   0.90225   0.90283   1.000
    O26     O    0.66517   0.10587   0.09593   1.000
    O27     O    0.83345   0.08621   0.94526   1.000
    O28     O    0.66788   0.95194   0.08415   1.000
    Zr29    Zr   0.25724   0.99504   0.00051   1.000
    O30     O    0.17924   0.09720   0.09701   1.000
    O31     O    0.17483   0.94387   0.08452   1.000
    O32     O    0.33690   0.07850   0.94547   1.000
    O33     O    0.17128   0.91332   0.05451   1.000
    O34     O    0.33404   0.04760   0.91560   1.000
    O35     O    0.33814   0.89359   0.90384   1.000
loop_
    _geom_bond_atom_site_label_1
    _geom_bond_atom_site_label_2
    _geom_bond_distance
    _geom_bond_site_symmetry_2
    _ccdc_geom_bond_type
    Zr8    O9        1.54721      .   S
    N1     O9        3.43649      .   S
    Zr8    O10       2.08849      .   S
    N3     O10       3.73292      .   S
    Zr8    O11       1.53332      .   S
    N7     O11       3.44450  1_655   S
    Zr8    O12       1.53577      .   S
    N1     O12       3.44641      .   S
    Zr8    O13       1.54573      .   S
    N7     O13       3.43271  1_655   S
    Zr8    O14       2.09225      .   S
    N4     O14       3.74862      .   S
    Zr15   O16       1.54173      .   S
    N0     O16       3.46996  1_455   S
    Zr15   O17       2.09576      .   S
    N5     O17       3.75389      .   S
    Zr15   O18       1.54828      .   S
    N6     O18       3.43678      .   S
    Zr15   O19       1.55383      .   S
    N0     O19       3.45788  1_455   S
    Zr15   O20       2.09089      .   S
    N2     O20       3.74703      .   S
    Zr15   O21       1.53530      .   S
    N6     O21       3.44785      .   S
    Zr22   O23       1.53859      .   S
    N3     O23       3.46851  1_455   S
    Zr22   O24       1.54937  1_546   S
    N4     O24       3.43576      .   S
    Zr22   O25       2.09869  1_545   S
    N7     O25       3.75808      .   S
    Zr22   O26       2.09593  1_556   S
    N1     O26       3.75246      .   S
    Zr22   O27       1.55424      .   S
    N3     O27       3.45378  1_455   S
    Zr22   O28       1.53462  1_546   S
    N4     O28       3.44866      .   S
    Zr29   O30       2.09455  1_565   S
    N0     O30       3.74013      .   S
    Zr29   O31       1.53058      .   S
    N5     O31       3.44027  1_655   S
    Zr29   O32       1.55033  1_564   S
    N2     O32       3.43614      .   S
    Zr29   O33       1.54385      .   S
    N5     O33       3.42786  1_655   S
    Zr29   O34       1.53421  1_564   S
    N2     O34       3.45010      .   S
    Zr29   O35       2.09463  1_554   S
    N6     O35       3.75089      .   S
