# CIF file generated by openbabel 2.4.90, see http://openbabel.sf.net
data_I
_chemical_name_common ''
_cell_length_a 18.405
_cell_length_b 18.418
_cell_length_c 18.418
_cell_angle_alpha 60.252
_cell_angle_beta 60.269
_cell_angle_gamma 60.269
_space_group_name_H-M_alt 'P 1'
_space_group_name_Hall 'P 1'
loop_
    _symmetry_equiv_pos_as_xyz
    x,y,z
loop_
    _atom_site_label
    _atom_site_type_symbol
    _atom_site_fract_x
    _atom_site_fract_y
    _atom_site_fract_z
    _atom_site_occupancy
    Zn0     Zn   0.29377   0.29376   0.29376   1.000
    Zn1     Zn   0.11959   0.29324   0.29324   1.000
    Zn2     Zn   0.29327   0.11966   0.29311   1.000
    Zn3     Zn   0.70675   0.70686   0.88032   1.000
    Zn4     Zn   0.70625   0.70620   0.70620   1.000
    Zn5     Zn   0.70675   0.88030   0.70688   1.000
    Zn6     Zn   0.88043   0.70672   0.70674   1.000
    Zn7     Zn   0.29327   0.29310   0.11967   1.000
    C8      C    0.38906   0.38897   0.11117   1.000
    C9      C    0.11091   0.11093   0.38860   1.000
    C10     C    0.38878   0.11088   0.11088   1.000
    C11     C    0.11113   0.38902   0.38905   1.000
    C12     C    0.38904   0.11116   0.38900   1.000
    C13     C    0.11091   0.38867   0.11094   1.000
    C14     C    0.61095   0.61100   0.88880   1.000
    C15     C    0.88911   0.88903   0.61130   1.000
    C16     C    0.88911   0.61129   0.88905   1.000
    C17     C    0.61098   0.88880   0.61099   1.000
    C18     C    0.88889   0.61094   0.61094   1.000
    C19     C    0.61124   0.88909   0.88910   1.000
    O20     O    0.25003   0.25002   0.25000   1.000
    O21     O    0.74999   0.74994   0.74996   1.000
    O22     O    0.36673   0.36665   0.07161   1.000
    O23     O    0.36722   0.36706   0.19492   1.000
    O24     O    0.07134   0.19465   0.36640   1.000
    O25     O    0.19468   0.07140   0.36650   1.000
    O26     O    0.36658   0.07133   0.19461   1.000
    O27     O    0.36658   0.19460   0.07130   1.000
    O28     O    0.07151   0.36673   0.36673   1.000
    O29     O    0.19494   0.36714   0.36713   1.000
    O30     O    0.36722   0.19491   0.36706   1.000
    O31     O    0.36674   0.07160   0.36665   1.000
    O32     O    0.07134   0.36646   0.19466   1.000
    O33     O    0.19467   0.36650   0.07141   1.000
    O34     O    0.63329   0.63331   0.92838   1.000
    O35     O    0.63280   0.63291   0.80507   1.000
    O36     O    0.80534   0.92856   0.63349   1.000
    O37     O    0.92868   0.80531   0.63352   1.000
    O38     O    0.92868   0.63350   0.80533   1.000
    O39     O    0.80535   0.63345   0.92858   1.000
    O40     O    0.63328   0.92836   0.63334   1.000
    O41     O    0.63280   0.80505   0.63292   1.000
    O42     O    0.80508   0.63282   0.63286   1.000
    O43     O    0.92851   0.63323   0.63326   1.000
    O44     O    0.63344   0.92863   0.80538   1.000
    O45     O    0.63343   0.80536   0.92864   1.000
loop_
    _geom_bond_atom_site_label_1
    _geom_bond_atom_site_label_2
    _geom_bond_distance
    _geom_bond_site_symmetry_2
    _ccdc_geom_bond_type
    O27    C10       1.27722      .   S
    O27    Zn7       1.97210      .   S
    O33    C13       1.27707      .   S
    O33    Zn7       1.97103      .   S
    O22    C8        1.27695      .   S
    O22    Zn7       1.97129      .   S
    C10    O26       1.27717      .   S
    C13    O32       1.27713      .   S
    C8     O23       1.27747      .   S
    Zn7    O20       1.96631      .   S
    O26    Zn2       1.97166      .   S
    O32    Zn1       1.97117      .   S
    O23    Zn0       1.97351      .   S
    O20    Zn2       1.96672      .   S
    Zn2    O25       1.97105      .   S
    Zn2    O31       1.97127      .   S
    Zn1    O24       1.97125      .   S
    Zn1    O28       1.97219      .   S
    Zn0    O30       1.97351      .   S
    Zn0    O29       1.97423      .   S
    O24    C9        1.27709      .   S
    O25    C9        1.27706      .   S
    O31    C12       1.27700      .   S
    O28    C11       1.27707      .   S
    O30    C12       1.27739      .   S
    O29    C11       1.27746      .   S
    C18    O42       1.27746      .   S
    C18    O43       1.27709      .   S
    C17    O41       1.27742      .   S
    C17    O40       1.27698      .   S
    C15    O36       1.27708      .   S
    C15    O37       1.27709      .   S
    O42    Zn4       1.97391      .   S
    O41    Zn4       1.97328      .   S
    O43    Zn6       1.97205      .   S
    O40    Zn5       1.97131      .   S
    O36    Zn5       1.97103      .   S
    O37    Zn6       1.97127      .   S
    Zn4    O35       1.97364      .   S
    Zn6    O38       1.97131      .   S
    Zn5    O21       1.96672      .   S
    Zn5    O44       1.97166      .   S
    O21    Zn3       1.96676      .   S
    O35    C14       1.27714      .   S
    O38    C16       1.27713      .   S
    O44    C19       1.27703      .   S
    Zn3    O34       1.97130      .   S
    Zn3    O39       1.97103      .   S
    Zn3    O45       1.97156      .   S
    C14    O34       1.27728      .   S
    C16    O39       1.27707      .   S
    C19    O45       1.27714      .   S
    O20    Zn0       1.96910      .   S
    O20    Zn1       1.96690      .   S
    O21    Zn4       1.96910      .   S
    O21    Zn6       1.96690      .   S
