# CIF file generated by openbabel 2.4.90, see http://openbabel.sf.net
data_I
_chemical_name_common ''
_cell_length_a 18.405
_cell_length_b 18.418
_cell_length_c 18.418
_cell_angle_alpha 60.252
_cell_angle_beta 60.269
_cell_angle_gamma 60.269
_space_group_name_H-M_alt 'P 1'
_space_group_name_Hall 'P 1'
loop_
    _symmetry_equiv_pos_as_xyz
    x,y,z
loop_
    _atom_site_label
    _atom_site_type_symbol
    _atom_site_fract_x
    _atom_site_fract_y
    _atom_site_fract_z
    _atom_site_occupancy
    C0      C    0.29327   0.29310   0.11967   1.000
    C1      C    0.29377   0.29376   0.29376   1.000
    C2      C    0.11959   0.29324   0.29324   1.000
    C3      C    0.29327   0.11966   0.29311   1.000
    C4      C    0.70675   0.70686   0.88032   1.000
    C5      C    0.70625   0.70620   0.70620   1.000
    C6      C    0.70675   0.88030   0.70688   1.000
    C7      C    0.88043   0.70672   0.70674   1.000
    C8      C    0.45132   0.45127   0.93220   1.000
    C9      C    0.45252   0.45245   0.16420   1.000
    C10     C    0.93189   0.16422   0.45180   1.000
    C11     C    0.16434   0.93200   0.45170   1.000
    C12     C    0.45182   0.93190   0.16423   1.000
    C13     C    0.45181   0.16422   0.93193   1.000
    C14     C    0.93202   0.45139   0.45139   1.000
    C15     C    0.16432   0.45245   0.45245   1.000
    C16     C    0.45253   0.16420   0.45245   1.000
    C17     C    0.45133   0.93217   0.45128   1.000
    C18     C    0.93188   0.45180   0.16422   1.000
    C19     C    0.16434   0.45169   0.93202   1.000
    C20     C    0.54870   0.54869   0.06779   1.000
    C21     C    0.54750   0.54751   0.83578   1.000
    C22     C    0.83568   0.06796   0.54829   1.000
    C23     C    0.06813   0.83574   0.54819   1.000
    C24     C    0.06814   0.54816   0.83576   1.000
    C25     C    0.83568   0.54827   0.06796   1.000
    C26     C    0.54869   0.06779   0.54870   1.000
    C27     C    0.54750   0.83576   0.54750   1.000
    C28     C    0.83570   0.54751   0.54754   1.000
    C29     C    0.06800   0.54858   0.54800   1.000
    C30     C    0.54820   0.06806   0.83576   1.000
    C31     C    0.54821   0.83574   0.06805   1.000
    C32     C    0.47303   0.47298   0.96114   1.000
    C33     C    0.47372   0.47366   0.09227   1.000
    C34     C    0.96094   0.09228   0.47331   1.000
    C35     C    0.09235   0.96098   0.47325   1.000
    C36     C    0.47332   0.96094   0.09228   1.000
    C37     C    0.47332   0.09227   0.96097   1.000
    C38     C    0.96106   0.47304   0.47306   1.000
    C39     C    0.09234   0.47365   0.47360   1.000
    C40     C    0.47369   0.09226   0.47369   1.000
    C41     C    0.47301   0.96112   0.47300   1.000
    C42     C    0.96093   0.47328   0.09228   1.000
    C43     C    0.09236   0.47322   0.96101   1.000
    C44     C    0.52699   0.52698   0.03884   1.000
    C45     C    0.52630   0.52630   0.90772   1.000
    C46     C    0.90766   0.03898   0.52673   1.000
    C47     C    0.03908   0.90768   0.52668   1.000
    C48     C    0.03908   0.52668   0.90770   1.000
    C49     C    0.90766   0.52674   0.03898   1.000
    C50     C    0.52701   0.03884   0.52696   1.000
    C51     C    0.52633   0.90770   0.52629   1.000
    C52     C    0.90768   0.52632   0.52632   1.000
    C53     C    0.03896   0.52692   0.52693   1.000
    C54     C    0.52670   0.03902   0.90770   1.000
    C55     C    0.52670   0.90769   0.03902   1.000
    C56     C    0.38906   0.38897   0.11117   1.000
    C57     C    0.44638   0.44632   0.05377   1.000
    C58     C    0.11091   0.11093   0.38860   1.000
    C59     C    0.05361   0.05362   0.44620   1.000
    C60     C    0.38878   0.11088   0.11088   1.000
    C61     C    0.44624   0.05359   0.05359   1.000
    C62     C    0.11113   0.38902   0.38905   1.000
    C63     C    0.05375   0.44638   0.44630   1.000
    C64     C    0.38904   0.11116   0.38900   1.000
    C65     C    0.44643   0.05376   0.44628   1.000
    C66     C    0.11091   0.38867   0.11094   1.000
    C67     C    0.05360   0.44622   0.05363   1.000
    C68     C    0.61095   0.61100   0.88880   1.000
    C69     C    0.55364   0.55363   0.94622   1.000
    C70     C    0.88911   0.88903   0.61130   1.000
    C71     C    0.94641   0.94634   0.55379   1.000
    C72     C    0.88911   0.61129   0.88905   1.000
    C73     C    0.94642   0.55374   0.94636   1.000
    C74     C    0.61098   0.88880   0.61099   1.000
    C75     C    0.55359   0.94620   0.55370   1.000
    C76     C    0.88889   0.61094   0.61094   1.000
    C77     C    0.94627   0.55359   0.55360   1.000
    C78     C    0.61124   0.88909   0.88910   1.000
    C79     C    0.55377   0.94637   0.94639   1.000
    C80     C    0.25003   0.25002   0.25000   1.000
    C81     C    0.74999   0.74994   0.74996   1.000
    C82     C    0.36673   0.36665   0.07161   1.000
    C83     C    0.36722   0.36706   0.19492   1.000
    C84     C    0.07134   0.19465   0.36640   1.000
    C85     C    0.19468   0.07140   0.36650   1.000
    C86     C    0.36658   0.07133   0.19461   1.000
    C87     C    0.36658   0.19460   0.07130   1.000
    C88     C    0.07151   0.36673   0.36673   1.000
    C89     C    0.19494   0.36714   0.36713   1.000
    C90     C    0.36722   0.19491   0.36706   1.000
    C91     C    0.36674   0.07160   0.36665   1.000
    C92     C    0.07134   0.36646   0.19466   1.000
    C93     C    0.19467   0.36650   0.07141   1.000
    C94     C    0.63329   0.63331   0.92838   1.000
    C95     C    0.63280   0.63291   0.80507   1.000
    C96     C    0.80534   0.92856   0.63349   1.000
    C97     C    0.92868   0.80531   0.63352   1.000
    C98     C    0.92868   0.63350   0.80533   1.000
    C99     C    0.80535   0.63345   0.92858   1.000
    C100    C    0.63328   0.92836   0.63334   1.000
    C101    C    0.63280   0.80505   0.63292   1.000
    C102    C    0.80508   0.63282   0.63286   1.000
    C103    C    0.92851   0.63323   0.63326   1.000
    C104    C    0.63344   0.92863   0.80538   1.000
    C105    C    0.63343   0.80536   0.92864   1.000
    O106    O    0.53784   0.53783   0.05332   1.000
    O107    O    0.50035   0.50032   0.06556   1.000
    O108    O    0.54031   0.54031   0.99253   1.000
    O109    O    0.87167   0.53751   0.05347   1.000
    O110    O    0.93430   0.50001   0.06563   1.000
    O111    O    0.92704   0.54024   0.99267   1.000
    O112    O    0.53746   0.87171   0.05354   1.000
    O113    O    0.50001   0.93431   0.06565   1.000
    O114    O    0.54024   0.92703   0.99271   1.000
    O115    O    0.45978   0.00727   0.07294   1.000
    O116    O    0.41751   0.08223   0.08224   1.000
    O117    O    0.45978   0.07293   0.00728   1.000
    O118    O    0.00727   0.45975   0.07296   1.000
    O119    O    0.08226   0.41744   0.08228   1.000
    O120    O    0.07298   0.45972   0.00732   1.000
    O121    O    0.46005   0.45999   0.07302   1.000
    O122    O    0.41772   0.41764   0.08247   1.000
    O123    O    0.45971   0.45965   0.00746   1.000
    O124    O    0.37768   0.15274   0.09109   1.000
    O125    O    0.32993   0.24385   0.09549   1.000
    O126    O    0.15279   0.37759   0.09118   1.000
    O127    O    0.24397   0.32980   0.09554   1.000
    O128    O    0.37790   0.37781   0.09139   1.000
    O129    O    0.33000   0.32988   0.09564   1.000
    O130    O    0.46312   0.46306   0.12824   1.000
    O131    O    0.46257   0.94642   0.12826   1.000
    O132    O    0.94641   0.46254   0.12825   1.000
    O133    O    0.37768   0.09110   0.15275   1.000
    O134    O    0.09112   0.37756   0.15280   1.000
    O135    O    0.37814   0.37801   0.15305   1.000
    O136    O    0.27165   0.27156   0.18484   1.000
    O137    O    0.32993   0.09550   0.24386   1.000
    O138    O    0.09547   0.32985   0.24395   1.000
    O139    O    0.33049   0.33041   0.24434   1.000
    O140    O    0.27165   0.18484   0.27156   1.000
    O141    O    0.24397   0.09553   0.32981   1.000
    O142    O    0.33001   0.09563   0.32988   1.000
    O143    O    0.09547   0.24394   0.32982   1.000
    O144    O    0.09555   0.32999   0.32999   1.000
    O145    O    0.33049   0.24433   0.33041   1.000
    O146    O    0.24435   0.33045   0.33045   1.000
    O147    O    0.09113   0.15279   0.37750   1.000
    O148    O    0.15279   0.09117   0.37755   1.000
    O149    O    0.37789   0.09138   0.37783   1.000
    O150    O    0.09132   0.37788   0.37789   1.000
    O151    O    0.37813   0.15304   0.37803   1.000
    O152    O    0.15303   0.37808   0.37809   1.000
    O153    O    0.08226   0.08228   0.41740   1.000
    O154    O    0.41773   0.08246   0.41764   1.000
    O155    O    0.08244   0.41770   0.41768   1.000
    O156    O    0.07298   0.00730   0.45973   1.000
    O157    O    0.00727   0.07295   0.45976   1.000
    O158    O    0.45972   0.00744   0.45964   1.000
    O159    O    0.46006   0.07301   0.45999   1.000
    O160    O    0.00741   0.45971   0.45968   1.000
    O161    O    0.07304   0.46001   0.45995   1.000
    O162    O    0.46217   0.94664   0.46214   1.000
    O163    O    0.94654   0.46221   0.46223   1.000
    O164    O    0.12835   0.94649   0.46248   1.000
    O165    O    0.94641   0.12825   0.46256   1.000
    O166    O    0.46311   0.12823   0.46307   1.000
    O167    O    0.12833   0.46305   0.46303   1.000
    O168    O    0.49967   0.93441   0.49965   1.000
    O169    O    0.93437   0.49968   0.49969   1.000
    O170    O    0.06572   0.93433   0.49997   1.000
    O171    O    0.93430   0.06563   0.50002   1.000
    O172    O    0.06565   0.50029   0.50027   1.000
    O173    O    0.50035   0.06555   0.50033   1.000
    O174    O    0.53692   0.87173   0.53690   1.000
    O175    O    0.53996   0.92695   0.54000   1.000
    O176    O    0.87169   0.53692   0.53693   1.000
    O177    O    0.92698   0.53995   0.53996   1.000
    O178    O    0.05361   0.87171   0.53743   1.000
    O179    O    0.99275   0.92701   0.54024   1.000
    O180    O    0.87167   0.05347   0.53751   1.000
    O181    O    0.92704   0.99266   0.54026   1.000
    O182    O    0.05348   0.53775   0.53747   1.000
    O183    O    0.99261   0.54026   0.54026   1.000
    O184    O    0.53785   0.05332   0.53783   1.000
    O185    O    0.54030   0.99252   0.54033   1.000
    O186    O    0.91758   0.58226   0.58227   1.000
    O187    O    0.58229   0.91750   0.58235   1.000
    O188    O    0.91776   0.91768   0.58255   1.000
    O189    O    0.84699   0.62188   0.62190   1.000
    O190    O    0.90870   0.62208   0.62210   1.000
    O191    O    0.62189   0.84692   0.62196   1.000
    O192    O    0.62213   0.90858   0.62217   1.000
    O193    O    0.84723   0.90879   0.62240   1.000
    O194    O    0.90889   0.84717   0.62241   1.000
    O195    O    0.75567   0.66951   0.66953   1.000
    O196    O    0.66953   0.75563   0.66956   1.000
    O197    O    0.90447   0.66997   0.67000   1.000
    O198    O    0.67001   0.90433   0.67011   1.000
    O199    O    0.75605   0.90443   0.67019   1.000
    O200    O    0.90455   0.75602   0.67013   1.000
    O201    O    0.66953   0.66955   0.75564   1.000
    O202    O    0.90455   0.67011   0.75604   1.000
    O203    O    0.72837   0.81512   0.72842   1.000
    O204    O    0.67009   0.90446   0.75613   1.000
    O205    O    0.72837   0.72840   0.81514   1.000
    O206    O    0.62188   0.62195   0.84693   1.000
    O207    O    0.90890   0.62240   0.84719   1.000
    O208    O    0.62234   0.90886   0.84724   1.000
    O209    O    0.05361   0.53742   0.87173   1.000
    O210    O    0.53745   0.05354   0.87173   1.000
    O211    O    0.53690   0.53690   0.87175   1.000
    O212    O    0.67002   0.67008   0.90435   1.000
    O213    O    0.75605   0.67016   0.90445   1.000
    O214    O    0.67009   0.75611   0.90448   1.000
    O215    O    0.62212   0.62215   0.90859   1.000
    O216    O    0.58230   0.58231   0.91751   1.000
    O217    O    0.84723   0.62237   0.90882   1.000
    O218    O    0.91776   0.58252   0.91771   1.000
    O219    O    0.62234   0.84722   0.90887   1.000
    O220    O    0.58251   0.91773   0.91775   1.000
    O221    O    0.54024   0.99269   0.92705   1.000
    O222    O    0.50001   0.06565   0.93434   1.000
    O223    O    0.99275   0.54021   0.92703   1.000
    O224    O    0.06572   0.49995   0.93436   1.000
    O225    O    0.53997   0.53997   0.92697   1.000
    O226    O    0.49967   0.49964   0.93443   1.000
    O227    O    0.46256   0.12825   0.94645   1.000
    O228    O    0.12835   0.46245   0.94652   1.000
    O229    O    0.46218   0.46212   0.94667   1.000
    O230    O    0.27190   0.27189   0.27188   1.000
    O231    O    0.18481   0.27163   0.27162   1.000
    O232    O    0.72812   0.72807   0.72808   1.000
    O233    O    0.81521   0.72833   0.72835   1.000
loop_
    _geom_bond_atom_site_label_1
    _geom_bond_atom_site_label_2
    _geom_bond_distance
    _geom_bond_site_symmetry_2
    _ccdc_geom_bond_type
    C44    O106      0.54434      .   S
    C20    O106      0.54434      .   S
    C44    O107      0.69518      .   S
    C33    O107      0.69518      .   S
    C44    O108      0.70169  1_554   S
    C69    O108      0.70169      .   S
    C49    O109      0.54429      .   S
    C25    O109      0.54429      .   S
    C49    O110      0.69505      .   S
    C42    O110      0.69505      .   S
    C49    O111      0.70164  1_554   S
    C73    O111      0.70164      .   S
    C55    O112      0.54430      .   S
    C31    O112      0.54430      .   S
    C55    O113      0.69511      .   S
    C36    O113      0.69511      .   S
    C55    O114      0.70165  1_554   S
    C79    O114      0.70165      .   S
    C61    O115      0.70178      .   S
    C36    O115      0.70178  1_565   S
    C61    O116      0.74771      .   S
    C60    O116      0.74771      .   S
    C61    O117      0.70158      .   S
    C37    O117      0.70158  1_556   S
    C67    O118      0.70158      .   S
    C42    O118      0.70158  1_655   S
    C67    O119      0.74752      .   S
    C66    O119      0.74752      .   S
    C67    O120      0.70164      .   S
    C43    O120      0.70164  1_556   S
    C57    O121      0.70159      .   S
    C33    O121      0.70159      .   S
    C57    O122      0.74788      .   S
    C56    O122      0.74788      .   S
    C57    O123      0.70176      .   S
    C32    O123      0.70176  1_556   S
    C87    O124      0.63861      .   S
    C60    O124      0.63861      .   S
    C87    O125      0.98605      .   S
    C0     O125      0.98605      .   S
    C93    O126      0.63854      .   S
    C66    O126      0.63854      .   S
    C93    O127      0.98551      .   S
    C0     O127      0.98551      .   S
    C82    O128      0.63848      .   S
    C56    O128      0.63848      .   S
    C82    O129      0.98564      .   S
    C0     O129      0.98564      .   S
    C33    O130      0.54426      .   S
    C9     O130      0.54426      .   S
    C36    O131      0.54433      .   S
    C12    O131      0.54433      .   S
    C42    O132      0.54427      .   S
    C18    O132      0.54427      .   S
    C60    O133      0.63858      .   S
    C86    O133      0.63858      .   S
    C66    O134      0.63857      .   S
    C92    O134      0.63857      .   S
    C56    O135      0.63873      .   S
    C83    O135      0.63873      .   S
    C0     O136      0.98315      .   S
    C80    O136      0.98315      .   S
    C86    O137      0.98583      .   S
    C3     O137      0.98583      .   S
    C92    O138      0.98558      .   S
    C2     O138      0.98558      .   S
    C83    O139      0.98675      .   S
    C1     O139      0.98675      .   S
    C80    O140      0.98336      .   S
    C3     O140      0.98336      .   S
    C3     O141      0.98552      .   S
    C85    O141      0.98552      .   S
    C3     O142      0.98563      .   S
    C91    O142      0.98563      .   S
    C2     O143      0.98563      .   S
    C84    O143      0.98563      .   S
    C2     O144      0.98609      .   S
    C88    O144      0.98609      .   S
    C1     O145      0.98676      .   S
    C90    O145      0.98676      .   S
    C1     O146      0.98711      .   S
    C89    O146      0.98711      .   S
    C84    O147      0.63854      .   S
    C58    O147      0.63854      .   S
    C85    O148      0.63853      .   S
    C58    O148      0.63853      .   S
    C91    O149      0.63850      .   S
    C64    O149      0.63850      .   S
    C88    O150      0.63853      .   S
    C62    O150      0.63853      .   S
    C90    O151      0.63869      .   S
    C64    O151      0.63869      .   S
    C89    O152      0.63873      .   S
    C62    O152      0.63873      .   S
    C58    O153      0.74755      .   S
    C59    O153      0.74755      .   S
    C64    O154      0.74788      .   S
    C65    O154      0.74788      .   S
    C62    O155      0.74792      .   S
    C63    O155      0.74792      .   S
    C59    O156      0.70177      .   S
    C35    O156      0.70177  1_565   S
    C59    O157      0.70158      .   S
    C34    O157      0.70158  1_655   S
    C65    O158      0.70190      .   S
    C41    O158      0.70190  1_565   S
    C65    O159      0.70155      .   S
    C40    O159      0.70155      .   S
    C63    O160      0.70171      .   S
    C38    O160      0.70171  1_655   S
    C63    O161      0.70140      .   S
    C39    O161      0.70140      .   S
    C17    O162      0.54412      .   S
    C41    O162      0.54412      .   S
    C14    O163      0.54429      .   S
    C38    O163      0.54429      .   S
    C11    O164      0.54429      .   S
    C35    O164      0.54429      .   S
    C10    O165      0.54429      .   S
    C34    O165      0.54429      .   S
    C16    O166      0.54431      .   S
    C40    O166      0.54431      .   S
    C15    O167      0.54436      .   S
    C39    O167      0.54436      .   S
    C41    O168      0.69533      .   S
    C51    O168      0.69533      .   S
    C38    O169      0.69527      .   S
    C52    O169      0.69527      .   S
    C35    O170      0.69507      .   S
    C47    O170      0.69507      .   S
    C34    O171      0.69508      .   S
    C46    O171      0.69508      .   S
    C39    O172      0.69571      .   S
    C53    O172      0.69571      .   S
    C40    O173      0.69520      .   S
    C50    O173      0.69520      .   S
    C51    O174      0.54432      .   S
    C27    O174      0.54432      .   S
    C51    O175      0.70157      .   S
    C75    O175      0.70157      .   S
    C52    O176      0.54432      .   S
    C28    O176      0.54432      .   S
    C52    O177      0.70128      .   S
    C77    O177      0.70128      .   S
    C47    O178      0.54430      .   S
    C23    O178      0.54430      .   S
    C47    O179      0.70158  1_455   S
    C71    O179      0.70158      .   S
    C46    O180      0.54429      .   S
    C22    O180      0.54429      .   S
    C46    O181      0.70176  1_545   S
    C71    O181      0.70176      .   S
    C53    O182      0.53994      .   S
    C29    O182      0.53994      .   S
    C53    O183      0.70177  1_455   S
    C77    O183      0.70177      .   S
    C50    O184      0.54428      .   S
    C26    O184      0.54428      .   S
    C50    O185      0.70188  1_545   S
    C75    O185      0.70188      .   S
    C77    O186      0.74845      .   S
    C76    O186      0.74845      .   S
    C75    O187      0.74792      .   S
    C74    O187      0.74792      .   S
    C71    O188      0.74754      .   S
    C70    O188      0.74754      .   S
    C76    O189      0.63873      .   S
    C102   O189      0.63873      .   S
    C76    O190      0.63854      .   S
    C103   O190      0.63854      .   S
    C74    O191      0.63871      .   S
    C101   O191      0.63871      .   S
    C74    O192      0.63849      .   S
    C100   O192      0.63849      .   S
    C70    O193      0.63854      .   S
    C96    O193      0.63854      .   S
    C70    O194      0.63854      .   S
    C97    O194      0.63854      .   S
    C102   O195      0.98695      .   S
    C5     O195      0.98695      .   S
    C101   O196      0.98664      .   S
    C5     O196      0.98664      .   S
    C103   O197      0.98603      .   S
    C7     O197      0.98603      .   S
    C100   O198      0.98566      .   S
    C6     O198      0.98566      .   S
    C96    O199      0.98552      .   S
    C6     O199      0.98552      .   S
    C97    O200      0.98564      .   S
    C7     O200      0.98564      .   S
    C5     O201      0.98682      .   S
    C95    O201      0.98682      .   S
    C7     O202      0.98565      .   S
    C98    O202      0.98565      .   S
    C6     O203      0.98336      .   S
    C81    O203      0.98336      .   S
    C6     O204      0.98583      .   S
    C104   O204      0.98583      .   S
    C81    O205      0.98338      .   S
    C4     O205      0.98338      .   S
    C95    O206      0.63857      .   S
    C68    O206      0.63857      .   S
    C98    O207      0.63856      .   S
    C72    O207      0.63856      .   S
    C104   O208      0.63851      .   S
    C78    O208      0.63851      .   S
    C24    O209      0.54427      .   S
    C48    O209      0.54427      .   S
    C30    O210      0.54426      .   S
    C54    O210      0.54426      .   S
    C21    O211      0.54434      .   S
    C45    O211      0.54434      .   S
    C4     O212      0.98565      .   S
    C94    O212      0.98565      .   S
    C4     O213      0.98551      .   S
    C99    O213      0.98551      .   S
    C4     O214      0.98578      .   S
    C105   O214      0.98578      .   S
    C68    O215      0.63864      .   S
    C94    O215      0.63864      .   S
    C68    O216      0.74789      .   S
    C69    O216      0.74789      .   S
    C72    O217      0.63854      .   S
    C99    O217      0.63854      .   S
    C72    O218      0.74752      .   S
    C73    O218      0.74752      .   S
    C78    O219      0.63857      .   S
    C105   O219      0.63857      .   S
    C78    O220      0.74771      .   S
    C79    O220      0.74771      .   S
    C54    O221      0.70178  1_545   S
    C79    O221      0.70178      .   S
    C54    O222      0.69517      .   S
    C37    O222      0.69517      .   S
    C48    O223      0.70158  1_455   S
    C73    O223      0.70158      .   S
    C48    O224      0.69512      .   S
    C43    O224      0.69512      .   S
    C45    O225      0.70157      .   S
    C69    O225      0.70157      .   S
    C45    O226      0.69518      .   S
    C32    O226      0.69518      .   S
    C13    O227      0.54430      .   S
    C37    O227      0.54430      .   S
    C19    O228      0.54429      .   S
    C43    O228      0.54429      .   S
    C8     O229      0.54427      .   S
    C32    O229      0.54427      .   S
    C80    O230      0.98455      .   S
    C1     O230      0.98455      .   S
    C80    O231      0.98345      .   S
    C2     O231      0.98345      .   S
    C81    O232      0.98455      .   S
    C5     O232      0.98455      .   S
    C81    O233      0.98345      .   S
    C7     O233      0.98345      .   S
