# CIF file generated by openbabel 2.4.90, see http://openbabel.sf.net
data_I
_chemical_name_common ''
_cell_length_a 18.405
_cell_length_b 18.418
_cell_length_c 18.418
_cell_angle_alpha 60.252
_cell_angle_beta 60.269
_cell_angle_gamma 60.269
_space_group_name_H-M_alt 'P 1'
_space_group_name_Hall 'P 1'
loop_
    _symmetry_equiv_pos_as_xyz
    x,y,z
loop_
    _atom_site_label
    _atom_site_type_symbol
    _atom_site_fract_x
    _atom_site_fract_y
    _atom_site_fract_z
    _atom_site_occupancy
    N0      N    0.50001   0.99998   0.99999   1.000
    N1      N    0.00001   0.49998   0.99999   1.000
    N2      N    0.50001   0.99998   0.49999   1.000
    N3      N    0.50001   0.49998   0.99999   1.000
    N4      N    0.00001   0.99998   0.49999   1.000
    N5      N    0.00001   0.49998   0.49992   1.000
    Zr6     Zr   0.75005   0.75003   0.75005   1.000
    O7      O    0.64560   0.64559   0.85440   1.000
    O8      O    0.85447   0.64564   0.85445   1.000
    O9      O    0.85442   0.64557   0.64557   1.000
    O10     O    0.64565   0.85444   0.85446   1.000
    O11     O    0.64560   0.85438   0.64561   1.000
    O12     O    0.85447   0.85443   0.64566   1.000
    Zr13    Zr   0.24997   0.24993   0.24993   1.000
    O14     O    0.14560   0.35439   0.35436   1.000
    O15     O    0.14555   0.35432   0.14553   1.000
    O16     O    0.35442   0.35437   0.14558   1.000
    O17     O    0.14555   0.14553   0.35431   1.000
    O18     O    0.35437   0.14552   0.14552   1.000
    O19     O    0.35442   0.14558   0.35437   1.000
loop_
    _geom_bond_atom_site_label_1
    _geom_bond_atom_site_label_2
    _geom_bond_distance
    _geom_bond_site_symmetry_2
    _ccdc_geom_bond_type
    Zr6    O7        2.72466      .   S
    N3     O7        3.79831      .   S
    Zr6    O8        2.72379      .   S
    N1     O8        3.79687  1_455   S
    Zr6    O9        2.72684      .   S
    N5     O9        3.80120  1_455   S
    Zr6    O10       2.72550      .   S
    N0     O10       3.79900      .   S
    Zr6    O11       2.72470      .   S
    N2     O11       3.79844      .   S
    Zr6    O12       2.72379      .   S
    N4     O12       3.79695  1_455   S
    Zr13   O14       2.72631      .   S
    N5     O14       3.79999      .   S
    Zr13   O15       2.72372      .   S
    N1     O15       3.79684  1_556   S
    Zr13   O16       2.72466      .   S
    N3     O16       3.79832  1_556   S
    Zr13   O17       2.72379      .   S
    N4     O17       3.79695  1_565   S
    Zr13   O18       2.72546      .   S
    N0     O18       3.79893  1_566   S
    Zr13   O19       2.72472      .   S
    N2     O19       3.79837  1_565   S
