# CIF file generated by openbabel 2.4.90, see http://openbabel.sf.net
data_I
_chemical_name_common 'KH5C6NO3'
_cell_length_a 3.9555
_cell_length_b 8.1165
_cell_length_c 26.6393
_cell_angle_alpha 90.0007
_cell_angle_beta 93.2013
_cell_angle_gamma 90.002
_space_group_name_H-M_alt 'P 1'
_space_group_name_Hall 'P 1'
loop_
    _symmetry_equiv_pos_as_xyz
    x,y,z
loop_
    _atom_site_label
    _atom_site_type_symbol
    _atom_site_fract_x
    _atom_site_fract_y
    _atom_site_fract_z
    _atom_site_occupancy
    K0      K    0.83344   0.27344   0.77553   1.000
    K1      K    0.66612   0.77474   0.72435   1.000
    K2      K    0.16612   0.72525   0.22435   1.000
    K3      K    0.33346   0.22656   0.27552   1.000
    H4      H    0.29606   0.57632   0.82186   1.000
    H5      H    0.36000   0.45753   0.86762   1.000
    H6      H    0.08265   0.66518   0.61764   1.000
    H7      H    0.58179   0.19626   0.61926   1.000
    H8      H    0.71101   0.24649   0.52846   1.000
    H9      H    0.19814   0.07650   0.67782   1.000
    H10     H    0.13260   0.95735   0.63218   1.000
    H11     H    0.42196   0.16462   0.88241   1.000
    H12     H    0.91467   0.69780   0.88028   1.000
    H13     H    0.79271   0.74589   0.97161   1.000
    H14     H    0.69816   0.42349   0.17781   1.000
    H15     H    0.63261   0.54268   0.13217   1.000
    H16     H    0.92197   0.33533   0.38239   1.000
    H17     H    0.41479   0.80221   0.38030   1.000
    H18     H    0.29287   0.75415   0.47161   1.000
    H19     H    0.79608   0.92372   0.32186   1.000
    H20     H    0.86010   0.04250   0.36761   1.000
    H21     H    0.58261   0.83485   0.11763   1.000
    H22     H    0.08190   0.30371   0.11926   1.000
    H23     H    0.21108   0.25338   0.02845   1.000
    C24     C    0.46232   0.48280   0.52640   1.000
    C25     C    0.22441   0.57060   0.59866   1.000
    C26     C    0.32034   0.42764   0.62535   1.000
    C27     C    0.49701   0.30794   0.59957   1.000
    C28     C    0.56770   0.33485   0.54972   1.000
    C29     C    0.23123   0.40563   0.67925   1.000
    C30     C    0.03781   0.98322   0.97338   1.000
    C31     C    0.27820   0.07051   0.90127   1.000
    C32     C    0.18024   0.92810   0.87447   1.000
    C33     C    0.00110   0.80895   0.90009   1.000
    C34     C    0.93030   0.83580   0.94994   1.000
    C35     C    0.26958   0.90566   0.82061   1.000
    C36     C    0.53787   0.51675   0.47338   1.000
    C37     C    0.77824   0.42944   0.40126   1.000
    C38     C    0.68029   0.57190   0.37448   1.000
    C39     C    0.50119   0.69104   0.40011   1.000
    C40     C    0.43039   0.66418   0.44995   1.000
    C41     C    0.76960   0.59436   0.32061   1.000
    C42     C    0.96234   0.01719   0.02639   1.000
    C43     C    0.72440   0.92942   0.09866   1.000
    C44     C    0.82036   0.07235   0.12534   1.000
    C45     C    0.99709   0.19204   0.09957   1.000
    C46     C    0.06777   0.16513   0.04972   1.000
    C47     C    0.73124   0.09437   0.17924   1.000
    N48     N    0.29214   0.60001   0.55081   1.000
    N49     N    0.21012   0.09991   0.94911   1.000
    N50     N    0.71017   0.40001   0.44910   1.000
    N51     N    0.79212   0.90001   0.05080   1.000
    O52     O    0.28765   0.26438   0.69969   1.000
    O53     O    0.10896   0.52744   0.70181   1.000
    O54     O    0.35615   0.45917   0.83111   1.000
    O55     O    0.20762   0.76500   0.80007   1.000
    O56     O    0.39722   0.02640   0.79821   1.000
    O57     O    0.13746   0.95929   0.66869   1.000
    O58     O    0.70764   0.73501   0.30008   1.000
    O59     O    0.89726   0.47359   0.29821   1.000
    O60     O    0.63748   0.54073   0.16868   1.000
    O61     O    0.78769   0.23563   0.19968   1.000
    O62     O    0.60898   0.97259   0.20181   1.000
    O63     O    0.85616   0.04085   0.33110   1.000
loop_
    _geom_bond_atom_site_label_1
    _geom_bond_atom_site_label_2
    _geom_bond_distance
    _geom_bond_site_symmetry_2
    _ccdc_geom_bond_type
    C42    C46       1.40465  1_655   S
    C42    N51       1.35264  1_545   S
    C42    C30       1.48555  1_644   S
    H23    C46       1.09146      .   S
    C46    C45       1.38955  1_455   S
    N51    C43       1.33863      .   S
    C43    H21       1.09132      .   S
    C43    C44       1.40179  1_565   S
    C45    H22       1.09064  1_655   S
    C45    C44       1.39902      .   S
    C44    C47       1.50812      .   S
    H15    O60       0.97198      .   S
    O60    H14       1.00783      .   S
    C47    O61       1.28349      .   S
    C47    O62       1.26671  1_545   S
    O62    K2        2.75254      .   S
    K3     O59       2.73475  1_455   S
    O59    C41       1.26717      .   S
    O58    C41       1.28357      .   S
    C41    C38       1.50786      .   S
    H19    O63       1.00721  1_565   S
    O63    H20       0.97195      .   S
    C38    C39       1.39900      .   S
    C38    C37       1.40192      .   S
    H17    C39       1.09058      .   S
    H16    C37       1.09135      .   S
    C39    C40       1.38932      .   S
    C37    N50       1.33872      .   S
    N50    C36       1.35280      .   S
    C40    H18       1.09417      .   S
    C40    C36       1.40458      .   S
    C36    C24       1.48550      .   S
    C24    C28       1.40467      .   S
    C24    N48       1.35279      .   S
    H8     C28       1.09196      .   S
    C28    C27       1.38956      .   S
    N48    C25       1.33861      .   S
    C25    H6        1.09131      .   S
    C25    C26       1.40196      .   S
    C27    H7        1.09062      .   S
    C27    C26       1.39903      .   S
    C26    C29       1.50812      .   S
    H10    O57       0.97198      .   S
    O57    H9        1.00759  1_565   S
    C29    O52       1.28349      .   S
    C29    O53       1.26692      .   S
    O53    K1        2.75234  1_455   S
    K0     O56       2.73475      .   S
    O56    C35       1.26686  1_545   S
    O55    C35       1.28357      .   S
    C35    C32       1.50786      .   S
    H4     O54       1.00742      .   S
    O54    H5        0.97196      .   S
    C32    C33       1.39899      .   S
    C32    C31       1.40169  1_565   S
    H12    C33       1.09059  1_655   S
    H11    C31       1.09135      .   S
    C33    C34       1.38932  1_455   S
    C31    N49       1.33868      .   S
    N49    C30       1.35232  1_545   S
    C34    H13       1.09409      .   S
    C34    C30       1.40457  1_655   S
    O52    K0        2.77857  1_455   S
    O53    K0        3.08769  1_455   S
    O54    K0        2.88810      .   S
    O55    K1        2.78808      .   S
    O56    K1        3.06744  1_545   S
    O57    K1        2.86824  1_455   S
    O58    K2        2.78820  1_655   S
    O59    K2        3.06727  1_655   S
    O60    K2        2.86836      .   S
    O61    K3        2.77856      .   S
    O62    K3        3.08743  1_565   S
    O63    K3        2.88810  1_655   S
