# CIF file generated by openbabel 2.4.90, see http://openbabel.sf.net
data_I
_chemical_name_common ''
_cell_length_a 18.626
_cell_length_b 14.536
_cell_length_c 27.649
_cell_angle_alpha 89.935
_cell_angle_beta 89.867
_cell_angle_gamma 92.543
_space_group_name_H-M_alt 'P 1'
_space_group_name_Hall 'P 1'
loop_
    _symmetry_equiv_pos_as_xyz
    x,y,z
loop_
    _atom_site_label
    _atom_site_type_symbol
    _atom_site_fract_x
    _atom_site_fract_y
    _atom_site_fract_z
    _atom_site_occupancy
    H0      H    0.05532   0.33059   0.36578   1.000
    H1      H    0.55531   0.33059   0.36578   1.000
    H2      H    0.08968   0.55561   0.26493   1.000
    H3      H    0.58967   0.55561   0.26493   1.000
    H4      H    0.39077   0.39156   0.26270   1.000
    H5      H    0.89076   0.39156   0.26270   1.000
    H6      H    0.17361   0.35578   0.37292   1.000
    H7      H    0.67360   0.35578   0.37292   1.000
    H8      H    0.12456   0.43384   0.40855   1.000
    H9      H    0.62455   0.43384   0.40855   1.000
    H10     H    0.30485   0.39017   0.35640   1.000
    H11     H    0.80484   0.39016   0.35642   1.000
    H12     H    0.41788   0.46351   0.38758   1.000
    H13     H    0.91787   0.46350   0.38758   1.000
    H14     H    0.29591   0.64355   0.47632   1.000
    H15     H    0.79590   0.64357   0.47631   1.000
    H16     H    0.18334   0.56594   0.44730   1.000
    H17     H    0.68333   0.56595   0.44736   1.000
    H18     H    0.99225   0.59028   0.38518   1.000
    H19     H    0.49224   0.59030   0.38518   1.000
    H20     H    0.10403   0.66640   0.41553   1.000
    H21     H    0.60402   0.66641   0.41550   1.000
    H22     H    0.00327   0.70827   0.55348   1.000
    H23     H    0.50326   0.70825   0.55348   1.000
    H24     H    0.39087   0.63427   0.52301   1.000
    H25     H    0.89086   0.63428   0.52301   1.000
    H26     H    0.12231   0.76408   0.54247   1.000
    H27     H    0.62230   0.76408   0.54247   1.000
    H28     H    0.17215   0.68206   0.51015   1.000
    H29     H    0.67214   0.68206   0.51015   1.000
    H30     H    0.21119   0.92472   0.41579   1.000
    H31     H    0.71118   0.92472   0.41579   1.000
    H32     H    0.41331   0.96586   0.49074   1.000
    H33     H    0.91331   0.96587   0.49074   1.000
    H34     H    0.25093   0.77788   0.54856   1.000
    H35     H    0.75092   0.77788   0.54856   1.000
    H36     H    0.44546   0.16902   0.86634   1.000
    H37     H    0.94546   0.16902   0.86634   1.000
    H38     H    0.41067   0.94439   0.76564   1.000
    H39     H    0.91066   0.94438   0.76565   1.000
    H40     H    0.10956   0.10856   0.76243   1.000
    H41     H    0.60956   0.10856   0.76243   1.000
    H42     H    0.32741   0.14450   0.87367   1.000
    H43     H    0.82740   0.14450   0.87367   1.000
    H44     H    0.37591   0.06615   0.90945   1.000
    H45     H    0.87590   0.06616   0.90945   1.000
    H46     H    0.19617   0.11155   0.85759   1.000
    H47     H    0.69616   0.11155   0.85759   1.000
    H48     H    0.08267   0.03821   0.88851   1.000
    H49     H    0.58266   0.03821   0.88851   1.000
    H50     H    0.20343   0.85599   0.97662   1.000
    H51     H    0.70342   0.85600   0.97662   1.000
    H52     H    0.31643   0.93375   0.94802   1.000
    H53     H    0.81642   0.93375   0.94803   1.000
    H54     H    0.50799   0.91162   0.88558   1.000
    H55     H    0.00000   0.91162   0.88558   1.000
    H56     H    0.39591   0.83515   0.91565   1.000
    H57     H    0.89590   0.83516   0.91560   1.000
    H58     H    0.49565   0.79053   0.05343   1.000
    H59     H    0.99564   0.79052   0.05343   1.000
    H60     H    0.10836   0.86456   0.02318   1.000
    H61     H    0.60835   0.86457   0.02318   1.000
    H62     H    0.37660   0.73582   0.04244   1.000
    H63     H    0.87659   0.73583   0.04244   1.000
    H64     H    0.32693   0.81768   0.00990   1.000
    H65     H    0.82693   0.81768   0.00991   1.000
    H66     H    0.28947   0.57578   0.91534   1.000
    H67     H    0.78947   0.57578   0.91534   1.000
    H68     H    0.08603   0.53449   0.98929   1.000
    H69     H    0.58602   0.53449   0.98929   1.000
    H70     H    0.24756   0.72189   0.04797   1.000
    H71     H    0.74755   0.72189   0.04797   1.000
    H72     H    0.44467   0.66939   0.63420   1.000
    H73     H    0.94466   0.66939   0.63420   1.000
    H74     H    0.41031   0.44438   0.73505   1.000
    H75     H    0.91030   0.44438   0.73505   1.000
    H76     H    0.10922   0.60842   0.73720   1.000
    H77     H    0.60921   0.60842   0.73720   1.000
    H78     H    0.32637   0.64420   0.62706   1.000
    H79     H    0.82637   0.64420   0.62706   1.000
    H80     H    0.37543   0.56613   0.59143   1.000
    H81     H    0.87543   0.56613   0.59143   1.000
    H82     H    0.19514   0.60980   0.64356   1.000
    H83     H    0.69513   0.60981   0.64356   1.000
    C84     C    0.50112   0.68182   0.51662   1.000
    C85     C    0.43764   0.63976   0.49932   1.000
    C86     C    0.93763   0.63977   0.49932   1.000
    C87     C    0.13101   0.73409   0.50646   1.000
    H88     H    0.08211   0.53646   0.61240   1.000
    H89     H    0.58211   0.53646   0.61240   1.000
    H90     H    0.20408   0.35640   0.52367   1.000
    H91     H    0.70407   0.35640   0.52367   1.000
    H92     H    0.31666   0.43403   0.55262   1.000
    H93     H    0.81665   0.43402   0.55262   1.000
    H94     H    0.50775   0.40967   0.61480   1.000
    H95     H    0.00000   0.40967   0.61481   1.000
    H96     H    0.39597   0.33356   0.58440   1.000
    H97     H    0.89596   0.33355   0.58440   1.000
    H98     H    0.49672   0.29171   0.44650   1.000
    H99     H    0.99671   0.29171   0.44650   1.000
    H100    H    0.10913   0.36569   0.47690   1.000
    H101    H    0.60912   0.36569   0.47697   1.000
    H102    H    0.37769   0.23588   0.45751   1.000
    H103    H    0.87768   0.23588   0.45751   1.000
    H104    H    0.32785   0.31791   0.48983   1.000
    H105    H    0.82784   0.31791   0.48980   1.000
    H106    H    0.28880   0.07525   0.58419   1.000
    H107    H    0.78879   0.07525   0.58419   1.000
    H108    H    0.08668   0.03410   0.50924   1.000
    H109    H    0.58667   0.03411   0.50920   1.000
    H110    H    0.24906   0.22210   0.45142   1.000
    H111    H    0.74906   0.22210   0.45142   1.000
    H112    H    0.05453   0.83096   0.13365   1.000
    H113    H    0.55452   0.83096   0.13365   1.000
    H114    H    0.08932   0.05560   0.23434   1.000
    H115    H    0.58931   0.05559   0.23430   1.000
    C116    C    0.43728   0.80936   0.98716   1.000
    C117    C    0.93727   0.80936   0.98716   1.000
    C118    C    0.49807   0.81763   0.01668   1.000
    C119    C    0.99806   0.81762   0.01668   1.000
    C120    C    0.06172   0.85981   0.99951   1.000
    H121    H    0.39043   0.89143   0.23756   1.000
    H122    H    0.89042   0.89143   0.23756   1.000
    H123    H    0.17258   0.85547   0.12632   1.000
    H124    H    0.67258   0.85547   0.12632   1.000
    H125    H    0.12408   0.93381   0.09054   1.000
    H126    H    0.62408   0.93381   0.09054   1.000
    H127    H    0.30383   0.88843   0.14240   1.000
    H128    H    0.80382   0.88843   0.14241   1.000
    H129    H    0.41732   0.96176   0.11148   1.000
    H130    H    0.91731   0.96177   0.11148   1.000
    H131    H    0.29656   0.14397   0.02330   1.000
    H132    H    0.79655   0.14397   0.02337   1.000
    H133    H    0.18356   0.06622   0.05196   1.000
    H134    H    0.68355   0.06622   0.05197   1.000
    H135    H    0.99201   0.08835   0.11441   1.000
    H136    H    0.49200   0.08835   0.11440   1.000
    H137    H    0.10408   0.16481   0.08434   1.000
    H138    H    0.60407   0.16482   0.08434   1.000
    H139    H    0.00434   0.20946   0.94656   1.000
    H140    H    0.50433   0.20945   0.94650   1.000
    H141    H    0.39164   0.13542   0.97681   1.000
    H142    H    0.89163   0.13543   0.97681   1.000
    H143    H    0.12339   0.26415   0.95755   1.000
    H144    H    0.62339   0.26415   0.95755   1.000
    H145    H    0.17306   0.18230   0.99008   1.000
    H146    H    0.67305   0.18230   0.99007   1.000
    H147    H    0.21051   0.42420   0.08465   1.000
    H148    H    0.71050   0.42420   0.08465   1.000
    H149    H    0.41395   0.46551   0.01069   1.000
    H150    H    0.91394   0.46551   0.01069   1.000
    H151    H    0.25243   0.27809   0.95202   1.000
    H152    H    0.75242   0.27809   0.95202   1.000
    C153    C    0.46906   0.35414   0.31611   1.000
    C154    C    0.96905   0.35414   0.31611   1.000
    C155    C    0.03658   0.37481   0.33712   1.000
    C156    C    0.53658   0.37481   0.33712   1.000
    C157    C    0.07931   0.44930   0.31944   1.000
    C158    C    0.57931   0.44930   0.31944   1.000
    C159    C    0.05522   0.49998   0.27976   1.000
    C160    C    0.55521   0.49998   0.27976   1.000
    C161    C    0.48746   0.47970   0.25983   1.000
    C162    C    0.98745   0.47970   0.25983   1.000
    C163    C    0.44336   0.40740   0.27831   1.000
    C164    C    0.94335   0.40740   0.27831   1.000
    C165    C    0.42650   0.27226   0.33328   1.000
    C166    C    0.92649   0.27226   0.33328   1.000
    C167    C    0.46210   0.53353   0.21760   1.000
    C168    C    0.96209   0.53353   0.21760   1.000
    C169    C    0.16735   0.42889   0.38126   1.000
    C170    C    0.66734   0.42889   0.38126   1.000
    C171    C    0.23608   0.47384   0.39929   1.000
    C172    C    0.73607   0.47384   0.39929   1.000
    C173    C    0.30289   0.44577   0.38282   1.000
    C174    C    0.80288   0.44576   0.38283   1.000
    C175    C    0.36651   0.48767   0.40004   1.000
    C176    C    0.86650   0.48766   0.40004   1.000
    C177    C    0.36557   0.55953   0.43407   1.000
    C178    C    0.86557   0.55953   0.43407   1.000
    C179    C    0.29836   0.58708   0.45055   1.000
    C180    C    0.79835   0.58709   0.45054   1.000
    C181    C    0.23490   0.54443   0.43370   1.000
    C182    C    0.73489   0.54444   0.43370   1.000
    C183    C    0.43312   0.60447   0.45211   1.000
    C184    C    0.93311   0.60447   0.45210   1.000
    C185    C    0.99456   0.61450   0.42248   1.000
    C186    C    0.49455   0.61451   0.42248   1.000
    C187    C    0.05782   0.65725   0.43962   1.000
    C188    C    0.55781   0.65726   0.43960   1.000
    C189    C    0.06212   0.69085   0.48712   1.000
    C190    C    0.56211   0.69085   0.48712   1.000
    C191    C    0.00112   0.68182   0.51662   1.000
    C192    C    0.84235   0.51486   0.09016   1.000
    C193    C    0.38452   0.35300   0.93463   1.000
    C194    C    0.88452   0.35299   0.93463   1.000
    O195    O    0.36890   0.24623   0.31027   1.000
    O196    O    0.86890   0.24623   0.31027   1.000
    O197    O    0.44715   0.22702   0.37019   1.000
    O198    O    0.94714   0.22702   0.37019   1.000
    O199    O    0.14450   0.47676   0.33776   1.000
    C200    C    0.63100   0.73409   0.50646   1.000
    C201    C    0.22341   0.84461   0.48072   1.000
    C202    C    0.72340   0.84461   0.48072   1.000
    C203    C    0.24673   0.90915   0.44560   1.000
    C204    C    0.74672   0.90915   0.44560   1.000
    C205    C    0.31542   0.95124   0.44891   1.000
    C206    C    0.81541   0.95124   0.44891   1.000
    C207    C    0.36025   0.93220   0.48803   1.000
    C208    C    0.86024   0.93220   0.48803   1.000
    C209    C    0.33583   0.87077   0.52381   1.000
    C210    C    0.83582   0.87077   0.52381   1.000
    C211    C    0.26776   0.82574   0.52002   1.000
    C212    C    0.76775   0.82574   0.52002   1.000
    C213    C    0.34296   0.01559   0.41077   1.000
    C214    C    0.84295   0.01559   0.41077   1.000
    C215    C    0.38245   0.85305   0.56680   1.000
    C216    C    0.88244   0.85305   0.56680   1.000
    C217    C    0.03143   0.14573   0.81620   1.000
    C218    C    0.53142   0.14573   0.81620   1.000
    C219    C    0.46402   0.12493   0.83756   1.000
    C220    C    0.96401   0.12493   0.83756   1.000
    C221    C    0.42122   0.05053   0.82010   1.000
    C222    C    0.92121   0.05053   0.82010   1.000
    C223    C    0.44518   0.99997   0.78030   1.000
    C224    C    0.94517   0.99997   0.78030   1.000
    C225    C    0.01286   0.02035   0.76003   1.000
    C226    C    0.51286   0.02035   0.76003   1.000
    C227    C    0.05702   0.09262   0.77829   1.000
    C228    C    0.55702   0.09262   0.77829   1.000
    C229    C    0.07386   0.22766   0.83322   1.000
    C230    C    0.57385   0.22766   0.83322   1.000
    C231    C    0.03809   0.96653   0.71770   1.000
    C232    C    0.53809   0.96653   0.71774   1.000
    C233    C    0.33330   0.07135   0.88218   1.000
    C234    C    0.83330   0.07135   0.88218   1.000
    C235    C    0.26431   0.02681   0.90022   1.000
    C236    C    0.76430   0.02682   0.90020   1.000
    C237    C    0.19774   0.05553   0.88384   1.000
    C238    C    0.69773   0.05554   0.88384   1.000
    C239    C    0.13388   0.01361   0.90088   1.000
    C240    C    0.63387   0.01361   0.90088   1.000
    C241    C    0.13437   0.94108   0.93463   1.000
    C242    C    0.63436   0.94108   0.93463   1.000
    C243    C    0.20135   0.91294   0.95105   1.000
    C244    C    0.70134   0.91294   0.95100   1.000
    C245    C    0.26503   0.95566   0.93442   1.000
    C246    C    0.76502   0.95567   0.93442   1.000
    C247    C    0.06662   0.89598   0.95244   1.000
    C248    C    0.56661   0.89598   0.95245   1.000
    C249    C    0.50538   0.88672   0.92279   1.000
    C250    C    0.00000   0.88672   0.92279   1.000
    C251    C    0.44195   0.84376   0.93977   1.000
    C252    C    0.94194   0.84376   0.93977   1.000
    C253    C    0.56171   0.85982   0.99951   1.000
    C254    C    0.36825   0.76585   0.00638   1.000
    C255    C    0.86825   0.76585   0.00638   1.000
    C256    C    0.27627   0.65541   0.98028   1.000
    C257    C    0.77626   0.65541   0.98020   1.000
    C258    C    0.25346   0.59123   0.94501   1.000
    C259    C    0.75345   0.59123   0.94501   1.000
    C260    C    0.18469   0.54921   0.94800   1.000
    C261    C    0.68468   0.54921   0.94800   1.000
    C262    C    0.13915   0.56814   0.98686   1.000
    C263    C    0.63914   0.56814   0.98680   1.000
    C264    C    0.16297   0.62935   0.02275   1.000
    C265    C    0.66296   0.62934   0.02275   1.000
    C266    C    0.23118   0.67422   0.01934   1.000
    C267    C    0.73118   0.67422   0.01934   1.000
    C268    C    0.15762   0.48513   0.90982   1.000
    C269    C    0.65762   0.48513   0.90980   1.000
    C270    C    0.11546   0.64701   0.06535   1.000
    C271    C    0.61545   0.64701   0.06535   1.000
    C272    C    0.03093   0.64584   0.68387   1.000
    C273    C    0.53092   0.64584   0.68387   1.000
    C274    C    0.46341   0.62516   0.66286   1.000
    C275    C    0.96340   0.62516   0.66286   1.000
    C276    C    0.42067   0.55068   0.68054   1.000
    C277    C    0.92067   0.55068   0.68054   1.000
    C278    C    0.44477   0.50000   0.72022   1.000
    C279    C    0.94477   0.50000   0.72022   1.000
    C280    C    0.01253   0.52029   0.74015   1.000
    C281    C    0.51252   0.52029   0.74015   1.000
    C282    C    0.05663   0.59258   0.72167   1.000
    C283    C    0.55662   0.59258   0.72167   1.000
    C284    C    0.07349   0.72772   0.66670   1.000
    C285    C    0.57349   0.72772   0.66670   1.000
    C286    C    0.03789   0.46645   0.78234   1.000
    C287    C    0.53788   0.46645   0.78234   1.000
    C288    C    0.33264   0.57108   0.61872   1.000
    C289    C    0.83263   0.57108   0.61872   1.000
    C290    C    0.26391   0.52613   0.60069   1.000
    C291    C    0.76390   0.52613   0.60069   1.000
    C292    C    0.19709   0.55420   0.61716   1.000
    C293    C    0.69709   0.55421   0.61710   1.000
    C294    C    0.13348   0.51230   0.59994   1.000
    C295    C    0.63348   0.51230   0.59994   1.000
    C296    C    0.13442   0.44043   0.56592   1.000
    C297    C    0.63441   0.44043   0.56590   1.000
    C298    C    0.20164   0.41288   0.54944   1.000
    C299    C    0.70163   0.41288   0.54944   1.000
    C300    C    0.26509   0.45554   0.56629   1.000
    C301    C    0.76508   0.45553   0.56629   1.000
    C302    C    0.06688   0.39549   0.54787   1.000
    C303    C    0.56687   0.39549   0.54787   1.000
    C304    C    0.50544   0.38546   0.57750   1.000
    C305    C    0.00000   0.38546   0.57750   1.000
    C306    C    0.44217   0.34271   0.56037   1.000
    C307    C    0.94216   0.34271   0.56037   1.000
    C308    C    0.43787   0.30912   0.51286   1.000
    C309    C    0.93787   0.30912   0.51286   1.000
    C310    C    0.49887   0.31815   0.48336   1.000
    C311    C    0.99886   0.31815   0.48336   1.000
    C312    C    0.06236   0.36020   0.50066   1.000
    C313    C    0.56235   0.36020   0.50066   1.000
    C314    C    0.36898   0.26588   0.49352   1.000
    C315    C    0.86897   0.26588   0.49352   1.000
    C316    C    0.27658   0.15536   0.51926   1.000
    C317    C    0.77657   0.15536   0.51926   1.000
    C318    C    0.25326   0.09082   0.55437   1.000
    C319    C    0.75325   0.09082   0.55437   1.000
    C320    C    0.18457   0.04873   0.55107   1.000
    C321    C    0.68456   0.04873   0.55107   1.000
    C322    C    0.13974   0.06777   0.51195   1.000
    C323    C    0.63973   0.06777   0.51195   1.000
    C324    C    0.16416   0.12920   0.47617   1.000
    C325    C    0.66415   0.12920   0.47617   1.000
    C326    C    0.23223   0.17423   0.47996   1.000
    C327    C    0.73222   0.17423   0.47996   1.000
    C328    C    0.15703   0.98439   0.58921   1.000
    C329    C    0.65703   0.98439   0.58921   1.000
    C330    C    0.11754   0.14692   0.43310   1.000
    C331    C    0.61753   0.14693   0.43319   1.000
    C332    C    0.46856   0.85425   0.18379   1.000
    C333    C    0.96855   0.85425   0.18379   1.000
    C334    C    0.03597   0.87505   0.16243   1.000
    C335    C    0.53597   0.87505   0.16243   1.000
    C336    C    0.07877   0.94945   0.17989   1.000
    C337    C    0.57877   0.94945   0.17989   1.000
    C338    C    0.05481   0.00001   0.21968   1.000
    C339    C    0.55480   0.00001   0.21969   1.000
    C340    C    0.48712   0.97963   0.23996   1.000
    C341    C    0.98712   0.97963   0.23996   1.000
    C342    C    0.44296   0.90736   0.22170   1.000
    C343    C    0.94296   0.90736   0.22170   1.000
    C344    C    0.42613   0.77232   0.16676   1.000
    C345    C    0.92612   0.77232   0.16676   1.000
    C346    C    0.46189   0.03346   0.28224   1.000
    C347    C    0.96189   0.03346   0.28224   1.000
    C348    C    0.16669   0.92862   0.11781   1.000
    C349    C    0.66668   0.92862   0.11780   1.000
    C350    C    0.23569   0.97316   0.09970   1.000
    C351    C    0.73568   0.97316   0.09977   1.000
    C352    C    0.30226   0.94444   0.11615   1.000
    C353    C    0.80225   0.94444   0.11610   1.000
    C354    C    0.36611   0.98636   0.09911   1.000
    C355    C    0.86611   0.98637   0.09911   1.000
    C356    C    0.36562   0.05889   0.06536   1.000
    C357    C    0.86562   0.05890   0.06536   1.000
    C358    C    0.29864   0.08703   0.04893   1.000
    C359    C    0.79863   0.08703   0.04894   1.000
    C360    C    0.23496   0.04430   0.06557   1.000
    C361    C    0.73495   0.04431   0.06557   1.000
    C362    C    0.43337   0.10399   0.04754   1.000
    C363    C    0.93336   0.10400   0.04754   1.000
    C364    C    0.99462   0.11325   0.07720   1.000
    C365    C    0.49461   0.11325   0.07700   1.000
    C366    C    0.05805   0.15621   0.06022   1.000
    C367    C    0.55804   0.15622   0.06022   1.000
    C368    C    0.06271   0.19062   0.01283   1.000
    C369    C    0.56271   0.19062   0.01283   1.000
    C370    C    0.00192   0.18236   0.98331   1.000
    C371    C    0.50191   0.18235   0.98331   1.000
    C372    C    0.43827   0.14016   0.00048   1.000
    C373    C    0.93826   0.14017   0.00048   1.000
    C374    C    0.13174   0.23412   0.99361   1.000
    C375    C    0.63173   0.23412   0.99361   1.000
    C376    C    0.22372   0.34458   0.01970   1.000
    C377    C    0.72371   0.34458   0.01970   1.000
    C378    C    0.24652   0.40876   0.05497   1.000
    C379    C    0.74652   0.40876   0.05497   1.000
    C380    C    0.31529   0.45078   0.05198   1.000
    C381    C    0.81528   0.45078   0.05198   1.000
    C382    C    0.36083   0.43186   0.01312   1.000
    C383    C    0.86082   0.43186   0.01312   1.000
    C384    C    0.33701   0.37065   0.97724   1.000
    C385    C    0.83700   0.37065   0.97724   1.000
    C386    C    0.26880   0.32577   0.98065   1.000
    C387    C    0.76880   0.32577   0.98065   1.000
    C388    C    0.34236   0.51486   0.09016   1.000
    O389    O    0.64449   0.47676   0.33776   1.000
    O390    O    0.15653   0.80464   0.47300   1.000
    O391    O    0.65652   0.80464   0.47300   1.000
    O392    O    0.36873   0.78902   0.59573   1.000
    O393    O    0.86873   0.78902   0.59573   1.000
    O394    O    0.43807   0.91129   0.57014   1.000
    O395    O    0.93806   0.91130   0.57014   1.000
    O396    O    0.41040   0.03027   0.40663   1.000
    O397    O    0.91039   0.03027   0.40663   1.000
    O398    O    0.39406   0.53861   0.21283   1.000
    O399    O    0.89406   0.53861   0.21283   1.000
    O400    O    0.00969   0.56992   0.18933   1.000
    O401    O    0.50968   0.56992   0.18933   1.000
    O402    O    0.29677   0.05363   0.38283   1.000
    O403    O    0.79676   0.05363   0.38283   1.000
    O404    O    0.13150   0.25387   0.81012   1.000
    O405    O    0.63149   0.25387   0.81012   1.000
    O406    O    0.05303   0.27282   0.87011   1.000
    O407    O    0.55302   0.27282   0.87011   1.000
    O408    O    0.35610   0.02311   0.83878   1.000
    O409    O    0.85610   0.02310   0.83879   1.000
    O410    O    0.34334   0.69524   0.97302   1.000
    O411    O    0.84333   0.69524   0.97302   1.000
    O412    O    0.12843   0.71125   0.09419   1.000
    O413    O    0.62842   0.71125   0.09419   1.000
    O414    O    0.05992   0.58861   0.06869   1.000
    O415    O    0.55991   0.58861   0.06869   1.000
    O416    O    0.09031   0.46897   0.90622   1.000
    O417    O    0.59030   0.46897   0.90622   1.000
    O418    O    0.10615   0.96139   0.71270   1.000
    O419    O    0.60615   0.96139   0.71270   1.000
    O420    O    0.49051   0.93025   0.68960   1.000
    O421    O    0.99050   0.93025   0.68960   1.000
    O422    O    0.20394   0.44844   0.88136   1.000
    O423    O    0.70393   0.44844   0.88136   1.000
    O424    O    0.13108   0.75375   0.68970   1.000
    O425    O    0.63108   0.75375   0.68970   1.000
    O426    O    0.05284   0.77296   0.62980   1.000
    O427    O    0.55283   0.77296   0.62900   1.000
    O428    O    0.35549   0.52322   0.66223   1.000
    O429    O    0.85548   0.52322   0.66223   1.000
    O430    O    0.34346   0.19533   0.52690   1.000
    O431    O    0.84345   0.19533   0.52690   1.000
    O432    O    0.13126   0.21096   0.40425   1.000
    O433    O    0.63125   0.21096   0.40425   1.000
    O434    O    0.06192   0.08867   0.42984   1.000
    O435    O    0.56191   0.08868   0.42984   1.000
    O436    O    0.08959   0.96971   0.59330   1.000
    O437    O    0.58958   0.96971   0.59330   1.000
    O438    O    0.10592   0.46137   0.78715   1.000
    O439    O    0.60592   0.46137   0.78715   1.000
    O440    O    0.49030   0.43006   0.81065   1.000
    O441    O    0.99030   0.43006   0.81065   1.000
    O442    O    0.20322   0.94634   0.61715   1.000
    O443    O    0.70321   0.94634   0.61715   1.000
    O444    O    0.36849   0.74611   0.18980   1.000
    O445    O    0.86848   0.74611   0.18980   1.000
    O446    O    0.44696   0.72716   0.12988   1.000
    O447    O    0.94695   0.72716   0.12988   1.000
    O448    O    0.14389   0.97687   0.16120   1.000
    O449    O    0.64388   0.97687   0.16121   1.000
    O450    O    0.15665   0.30475   0.02697   1.000
    O451    O    0.65665   0.30474   0.02697   1.000
    O452    O    0.37157   0.28874   0.90579   1.000
    O453    O    0.87156   0.28874   0.90579   1.000
    O454    O    0.44006   0.41140   0.93129   1.000
    O455    O    0.94005   0.41140   0.93129   1.000
    O456    O    0.40967   0.53101   0.09370   1.000
    O457    O    0.90967   0.53101   0.09370   1.000
    O458    O    0.39383   0.03859   0.28729   1.000
    O459    O    0.89383   0.03859   0.28729   1.000
    O460    O    0.00948   0.06973   0.31038   1.000
    O461    O    0.50947   0.06974   0.31038   1.000
    O462    O    0.29605   0.55155   0.11862   1.000
    O463    O    0.79604   0.55155   0.11862   1.000
loop_
    _geom_bond_atom_site_label_1
    _geom_bond_atom_site_label_2
    _geom_bond_distance
    _geom_bond_site_symmetry_2
    _ccdc_geom_bond_type
    C373   C363      1.40406      .   S
    C373   H142      1.08856  1_554   S
    C373   C370      1.39271  1_654   S
    C372   C362      1.40406      .   S
    C372   H141      1.08856  1_554   S
    C372   C371      1.39245  1_554   S
    C255   H65       1.10480      .   S
    C255   H63       1.10204      .   S
    C255   O411      1.44284  1_554   S
    C255   C117      1.50303  1_554   S
    C254   H64       1.10478      .   S
    C254   H62       1.10205      .   S
    C254   O410      1.44282  1_554   S
    C254   C116      1.50304  1_554   S
    H150   C383      1.08604      .   S
    H149   C382      1.08606      .   S
    C369   C367      1.40307      .   S
    C369   C371      1.39831  1_554   S
    C369   C375      1.50303  1_554   S
    C368   C366      1.40308      .   S
    C368   C370      1.39832  1_554   S
    C368   C374      1.50303  1_554   S
    C383   C381      1.40237      .   S
    C383   C385      1.39339  1_554   S
    C382   C380      1.40236      .   S
    C382   C384      1.39338  1_554   S
    C118   H58       1.08948      .   S
    C118   C116      1.39828  1_554   S
    C118   C253      1.39247  1_554   S
    C119   H59       1.08949      .   S
    C119   C117      1.39830  1_554   S
    C119   C120      1.39271  1_654   S
    C267   C265      1.40510      .   S
    C267   H71       1.08788      .   S
    C267   C257      1.40282  1_554   S
    C266   C264      1.40510      .   S
    C266   H70       1.08787      .   S
    C266   C256      1.40111  1_554   S
    C377   O451      1.36763      .   S
    C377   C379      1.40381      .   S
    C377   C387      1.40088  1_554   S
    C376   O450      1.36763      .   S
    C376   C378      1.40382      .   S
    C376   C386      1.40088  1_554   S
    C265   C271      1.50079      .   S
    C265   C263      1.39476  1_554   S
    C264   C270      1.50078      .   S
    C264   C262      1.39358  1_554   S
    H61    C253      1.08853  1_554   S
    H60    C120      1.08854  1_554   S
    H131   C358      1.09105      .   S
    H132   C359      1.08998      .   S
    O450   C374      1.44287  1_554   S
    O451   C375      1.44286  1_554   S
    C363   C357      1.47914      .   S
    C363   C364      1.40829      .   S
    C362   C356      1.47914      .   S
    C362   C365      1.40483      .   S
    C358   C356      1.40633      .   S
    C358   C360      1.39126      .   S
    C359   C357      1.40626      .   S
    C359   C361      1.39116      .   S
    H133   C360      1.09001      .   S
    H134   C361      1.08992      .   S
    C380   C378      1.39662      .   S
    C380   C388      1.48296      .   S
    C381   C379      1.39661      .   S
    C381   C192      1.48297      .   S
    C379   H148      1.08856      .   S
    C378   H147      1.08856      .   S
    C366   C364      1.39196  1_455   S
    C366   H137      1.09036      .   S
    C367   C365      1.39012      .   S
    C367   H138      1.09035      .   S
    C271   O415      1.31177      .   S
    C271   O413      1.24451      .   S
    C270   O414      1.31175      .   S
    C270   O412      1.24452      .   S
    C356   C354      1.40749  1_545   S
    C357   C355      1.40750  1_545   S
    C361   C351      1.40105  1_545   S
    C360   C350      1.39972  1_545   S
    C365   H136      1.09548      .   S
    C364   H135      1.09052      .   S
    C388   O456      1.26934      .   S
    C388   O462      1.29856      .   S
    C192   O457      1.26934      .   S
    C192   O463      1.29858      .   S
    H125   C348      1.10088      .   S
    H126   C349      1.10070      .   S
    C354   H129      1.08905      .   S
    C354   C352      1.39299      .   S
    C355   H130      1.08905      .   S
    C355   C353      1.39253      .   S
    C350   C352      1.40238      .   S
    C350   C348      1.49795      .   S
    C351   C353      1.40131      .   S
    C351   C349      1.49723      .   S
    C353   H128      1.09259      .   S
    C352   H127      1.09148      .   S
    C349   H124      1.09910      .   S
    C349   O449      1.46246      .   S
    C348   H123      1.09902      .   S
    C348   O448      1.46203      .   S
    O447   C345      1.28193      .   S
    O446   C344      1.28193      .   S
    H113   C335      1.08763      .   S
    H112   C334      1.08764      .   S
    O448   C336      1.36041      .   S
    O449   C337      1.36032      .   S
    C335   C337      1.40165      .   S
    C335   C332      1.40672      .   S
    C334   C336      1.40165      .   S
    C334   C333      1.40697  1_455   S
    C344   C332      1.47788      .   S
    C344   O444      1.28987      .   S
    C345   C333      1.47787      .   S
    C345   O445      1.28987      .   S
    C336   C338      1.40652  1_565   S
    C337   C339      1.40674  1_565   S
    C332   C342      1.39791      .   S
    C333   C343      1.39793      .   S
    O400   C168      1.27708  1_455   S
    O401   C167      1.27687      .   S
    O399   C168      1.27969      .   S
    O398   C167      1.27969      .   S
    C168   C162      1.49403      .   S
    C167   C161      1.49404      .   S
    C338   H114      1.08906      .   S
    C338   C341      1.39830  1_445   S
    C339   H115      1.08855      .   S
    C339   C340      1.39793  1_545   S
    C343   H122      1.08684      .   S
    C343   C341      1.40055      .   S
    C342   H121      1.08685      .   S
    C342   C340      1.40055      .   S
    C340   C346      1.49388  1_565   S
    C341   C347      1.49388  1_565   S
    C161   C163      1.40017      .   S
    C161   C160      1.39763      .   S
    C162   C164      1.40018      .   S
    C162   C159      1.39789  1_655   S
    H4     C163      1.08676      .   S
    H5     C164      1.08675      .   S
    H3     C160      1.08904      .   S
    H2     C159      1.08905      .   S
    C164   C154      1.39791      .   S
    C163   C153      1.39792      .   S
    C159   C157      1.40622      .   S
    C160   C158      1.40622      .   S
    C346   O458      1.28049      .   S
    C346   O461      1.27727      .   S
    C347   O459      1.28049      .   S
    C347   O460      1.27746  1_655   S
    O196   C166      1.29086      .   S
    O195   C165      1.29086      .   S
    C154   C166      1.47780      .   S
    C154   C155      1.40719  1_655   S
    C153   C165      1.47779      .   S
    C153   C156      1.40693      .   S
    C158   C156      1.40191      .   S
    C158   O389      1.36028      .   S
    C157   C155      1.40191      .   S
    C157   O199      1.36028      .   S
    C165   O197      1.28243      .   S
    C166   O198      1.28243      .   S
    C155   H0        1.08764      .   S
    C156   H1        1.08764      .   S
    O389   C170      1.46243      .   S
    O199   C169      1.46244      .   S
    H10    C173      1.09171      .   S
    H11    C174      1.09158      .   S
    H6     C169      1.09897      .   S
    H7     C170      1.09896      .   S
    C169   C171      1.49792      .   S
    C169   H8        1.10103      .   S
    C170   C172      1.49792      .   S
    C170   H9        1.10103      .   S
    C173   C171      1.40191      .   S
    C173   C175      1.39316      .   S
    O402   C213      1.29881      .   S
    O403   C214      1.29880      .   S
    C174   C172      1.40185      .   S
    C174   C176      1.39306      .   S
    H19    C186      1.09041      .   S
    H18    C185      1.09043      .   S
    H13    C176      1.08907      .   S
    H12    C175      1.08905      .   S
    C172   C182      1.40101      .   S
    C171   C181      1.40093      .   S
    C176   C178      1.40737      .   S
    C175   C177      1.40731      .   S
    O432   C330      1.24267      .   S
    O433   C331      1.24426      .   S
    O397   C214      1.26973      .   S
    O396   C213      1.26972      .   S
    C214   C206      1.48411  1_545   S
    C213   C205      1.48413  1_545   S
    H21    C188      1.09055      .   S
    H20    C187      1.09041      .   S
    H30    C203      1.08817      .   S
    H31    C204      1.08815      .   S
    C185   C187      1.39201  1_655   S
    C185   C184      1.40800      .   S
    C186   C188      1.39183      .   S
    C186   C183      1.40791      .   S
    O434   C330      1.31188      .   S
    O435   C331      1.31206      .   S
    C330   C324      1.50411      .   S
    C331   C325      1.50214      .   S
    C181   H16       1.08948      .   S
    C181   C179      1.39157      .   S
    C182   H17       1.09007      .   S
    C182   C180      1.39149      .   S
    C178   C180      1.40628      .   S
    C178   C184      1.47941      .   S
    C177   C179      1.40635      .   S
    C177   C183      1.47949      .   S
    C188   C190      1.40340      .   S
    C187   C189      1.40292      .   S
    C203   C205      1.39678      .   S
    C203   C201      1.40410      .   S
    C204   C206      1.39680      .   S
    C204   C202      1.40409      .   S
    H98    C310      1.08979      .   S
    H99    C311      1.08978      .   S
    C206   C208      1.40272      .   S
    C205   C207      1.40273      .   S
    C180   H15       1.09004      .   S
    C179   H14       1.08998      .   S
    H111   C327      1.08782      .   S
    H110   C326      1.08783      .   S
    C184   C86       1.40465      .   S
    C183   C85       1.40436      .   S
    H103   C315      1.10196      .   S
    H102   C314      1.10196      .   S
    O391   C202      1.36827      .   S
    O391   C200      1.44438      .   S
    O390   C201      1.36827      .   S
    O390   C87       1.44437      .   S
    C324   C326      1.40497      .   S
    C324   C322      1.39384      .   S
    C325   C327      1.40499      .   S
    C325   C323      1.39383      .   S
    H100   C312      1.08990      .   S
    H101   C313      1.08875      .   S
    C327   C317      1.40071      .   S
    C326   C316      1.40071      .   S
    C201   C211      1.40072      .   S
    C202   C212      1.40072      .   S
    C311   C312      1.39296  1_655   S
    C311   C309      1.39835      .   S
    C310   C313      1.39271      .   S
    C310   C308      1.39835      .   S
    C190   C200      1.50332      .   S
    C190   C84       1.39834      .   S
    C189   C87       1.50332      .   S
    C189   C191      1.39836      .   S
    C207   H32       1.08606      .   S
    C207   C209      1.39384      .   S
    C208   H33       1.08607      .   S
    C208   C210      1.39383      .   S
    H105   C315      1.10502      .   S
    H104   C314      1.10493      .   S
    C314   C308      1.50331      .   S
    C314   O430      1.44290      .   S
    C315   C309      1.50331      .   S
    C315   O431      1.44289      .   S
    C86    C191      1.39296  1_655   S
    C86    H25       1.08875      .   S
    C85    C84       1.39272      .   S
    C85    H24       1.08873      .   S
    C312   C302      1.40436      .   S
    C313   C303      1.40436      .   S
    C87    H28       1.10494      .   S
    C87    H26       1.10192      .   S
    C200   H29       1.10494      .   S
    C200   H27       1.10192      .   S
    H109   C323      1.08614      .   S
    H108   C322      1.08607      .   S
    C322   C320      1.40270      .   S
    C323   C321      1.40272      .   S
    C308   C306      1.40314      .   S
    C309   C307      1.40314      .   S
    C191   H22       1.08981      .   S
    C84    H23       1.08978      .   S
    C316   O430      1.36792      .   S
    C316   C318      1.40390      .   S
    C317   O431      1.36793      .   S
    C317   C319      1.40390      .   S
    C212   C210      1.40499      .   S
    C212   H35       1.08782      .   S
    C211   C209      1.40499      .   S
    C211   H34       1.08782      .   S
    H91    C299      1.09005      .   S
    H90    C298      1.09003      .   S
    C210   C216      1.50236      .   S
    C209   C215      1.50236      .   S
    C303   C297      1.47940      .   S
    C303   C304      1.40792      .   S
    C302   C296      1.47960      .   S
    C302   C305      1.49097      .   S
    C298   C296      1.40637      .   S
    C298   C300      1.39158      .   S
    C299   C297      1.40620      .   S
    C299   C301      1.39159      .   S
    C321   C319      1.39677      .   S
    C321   C329      1.48410  1_545   S
    C320   C318      1.39677      .   S
    C320   C328      1.48410  1_545   S
    H92    C300      1.09017      .   S
    H93    C301      1.09016      .   S
    C318   H106      1.08836      .   S
    C319   H107      1.08836      .   S
    C307   C305      1.30943  1_655   S
    C307   H97       1.08939      .   S
    C306   C304      1.39191      .   S
    C306   H96       1.08939      .   S
    C297   C295      1.40758      .   S
    C296   C294      1.40719      .   S
    C301   C291      1.40084      .   S
    C300   C290      1.40081      .   S
    C216   O395      1.31204      .   S
    C216   O393      1.24405      .   S
    C215   O394      1.31204      .   S
    C215   O392      1.24403      .   S
    C305   H95       1.09034      .   S
    C304   H94       1.09041      .   S
    C329   O437      1.26961      .   S
    C329   O443      1.29882      .   S
    C328   O436      1.26960      .   S
    C328   O442      1.29880      .   S
    H80    C288      1.10103      .   S
    H81    C289      1.10105      .   S
    C294   H88       1.08907      .   S
    C294   C292      1.39315      .   S
    C295   H89       1.08908      .   S
    C295   C293      1.39259      .   S
    C291   C293      1.40141      .   S
    C291   C289      1.49793      .   S
    C290   C292      1.40195      .   S
    C290   C288      1.49793      .   S
    C293   H83       1.09253      .   S
    C292   H82       1.09139      .   S
    C288   H78       1.09899      .   S
    C288   O428      1.46261      .   S
    C289   H79       1.09898      .   S
    C289   O429      1.46261      .   S
    O427   C285      1.29989      .   S
    O426   C284      1.28222      .   S
    H73    C275      1.08765      .   S
    H72    C274      1.08765      .   S
    O429   C277      1.36020      .   S
    O428   C276      1.36020      .   S
    C275   C277      1.40190      .   S
    C275   C272      1.40716  1_655   S
    C274   C276      1.40190      .   S
    C274   C273      1.40693      .   S
    C284   C272      1.47780      .   S
    C284   O424      1.29071      .   S
    C285   C273      1.47779      .   S
    C285   O425      1.29071      .   S
    C277   C279      1.40622      .   S
    C276   C278      1.40623      .   S
    C273   C283      1.39794      .   S
    C272   C282      1.39795      .   S
    O421   C231      1.27677  1_655   S
    O420   C232      1.27725      .   S
    O418   C231      1.28034      .   S
    O419   C232      1.28048      .   S
    C231   C225      1.49495  1_565   S
    C232   C226      1.49410  1_565   S
    C279   H75       1.08904      .   S
    C279   C280      1.39787  1_655   S
    C278   H74       1.08904      .   S
    C278   C281      1.39762      .   S
    C283   H77       1.08586      .   S
    C283   C281      1.40015      .   S
    C282   H76       1.08585      .   S
    C282   C280      1.40016      .   S
    C280   C286      1.49319      .   S
    C281   C287      1.49318      .   S
    C225   C227      1.40055      .   S
    C225   C224      1.39817  1_445   S
    C226   C228      1.40055      .   S
    C226   C223      1.39791  1_545   S
    H40    C227      1.08684      .   S
    H41    C228      1.08683      .   S
    H38    C223      1.08906      .   S
    H39    C224      1.08897      .   S
    C228   C218      1.39792      .   S
    C227   C217      1.39790      .   S
    C224   C222      1.40672  1_565   S
    C223   C221      1.40673  1_565   S
    C287   O439      1.27984      .   S
    C287   O440      1.27753      .   S
    C286   O438      1.27982      .   S
    C286   O441      1.27773  1_455   S
    O404   C229      1.29067      .   S
    O405   C230      1.29067      .   S
    C218   C230      1.47779      .   S
    C218   C219      1.40668      .   S
    C217   C229      1.47780      .   S
    C217   C220      1.40694  1_455   S
    C222   C220      1.40166      .   S
    C222   O409      1.36040      .   S
    C221   C219      1.40166      .   S
    C221   O408      1.36029      .   S
    C230   O407      1.28216      .   S
    C229   O406      1.28216      .   S
    C220   H37       1.08763      .   S
    C219   H36       1.08763      .   S
    O408   C233      1.46220      .   S
    O409   C234      1.46199      .   S
    H47    C238      1.09150      .   S
    H46    C237      1.09151      .   S
    H43    C234      1.09905      .   S
    H42    C233      1.09905      .   S
    O423   C269      1.29825      .   S
    O422   C268      1.29860      .   S
    C234   C236      1.49714      .   S
    C234   H45       1.10089      .   S
    C233   C235      1.49733      .   S
    C233   H44       1.10091      .   S
    C237   C235      1.40175      .   S
    C237   C239      1.39300      .   S
    C238   C236      1.40156      .   S
    C238   C240      1.39300      .   S
    H54    C249      1.09051      .   S
    H55    C250      1.09025      .   S
    H48    C239      1.08904      .   S
    H49    C240      1.08906      .   S
    C236   C246      1.40143  1_545   S
    C235   C245      1.40108  1_545   S
    C239   C241      1.40753  1_545   S
    C240   C242      1.40751  1_545   S
    O453   C194      1.24460      .   S
    O452   C193      1.24461      .   S
    O417   C269      1.26942      .   S
    O416   C268      1.26947      .   S
    C269   C261      1.48337      .   S
    C268   C260      1.48299      .   S
    H67    C259      1.08838      .   S
    H66    C258      1.08837      .   S
    H57    C252      1.09120      .   S
    H56    C251      1.09034      .   S
    C249   C251      1.39196      .   S
    C249   C248      1.40801      .   S
    C250   C252      1.31038  1_455   S
    C250   C247      1.48999      .   S
    O455   C194      1.31174      .   S
    O454   C193      1.31175      .   S
    C245   H52       1.08993      .   S
    C245   C243      1.39117      .   S
    C246   H53       1.09000      .   S
    C246   C244      1.39071      .   S
    C193   C384      1.50100      .   S
    C242   C244      1.40579      .   S
    C242   C248      1.47917      .   S
    C194   C385      1.50101      .   S
    C241   C243      1.40624      .   S
    C241   C247      1.47906      .   S
    C252   C117      1.40306      .   S
    C251   C116      1.40305      .   S
    C259   C261      1.39661      .   S
    C259   C257      1.40227      .   S
    C258   C260      1.39659      .   S
    C258   C256      1.40381      .   S
    H140   C371      1.09104      .   S
    H139   C370      1.08950      .   S
    C260   C262      1.40243      .   S
    C261   C263      1.40115      .   S
    C244   H51       1.09088      .   S
    C243   H50       1.09001      .   S
    H152   C387      1.08790      .   S
    H151   C386      1.08790      .   S
    C247   C120      1.40430      .   S
    C248   C253      1.40403      .   S
    H143   C374      1.10201      .   S
    H144   C375      1.10202      .   S
    O410   C256      1.36759      .   S
    O411   C257      1.36727      .   S
    C384   C386      1.40511      .   S
    C385   C387      1.40510      .   S
    C263   H69       1.08615      .   S
    C262   H68       1.08604      .   S
    H146   C375      1.10482      .   S
    H145   C374      1.10480      .   S
