# CIF file generated by openbabel 2.4.90, see http://openbabel.sf.net
data_I
_chemical_name_common ''
_cell_length_a 18.626
_cell_length_b 14.536
_cell_length_c 27.649
_cell_angle_alpha 89.935
_cell_angle_beta 89.867
_cell_angle_gamma 92.543
_space_group_name_H-M_alt 'P 1'
_space_group_name_Hall 'P 1'
loop_
    _symmetry_equiv_pos_as_xyz
    x,y,z
loop_
    _atom_site_label
    _atom_site_type_symbol
    _atom_site_fract_x
    _atom_site_fract_y
    _atom_site_fract_z
    _atom_site_occupancy
    N0      N    0.90094   0.62440   0.41393   1.000
    N1      N    0.40093   0.62440   0.41392   1.000
    N2      N    0.59895   0.87582   0.91394   1.000
    N3      N    0.09872   0.87582   0.91394   1.000
    N4      N    0.59905   0.37557   0.58605   1.000
    N5      N    0.09882   0.37557   0.58603   1.000
    N6      N    0.90104   0.12416   0.08604   1.000
    N7      N    0.40103   0.12416   0.08603   1.000
    Zr8     Zr   0.65057   0.87922   0.66630   1.000
    O9      O    0.76020   0.73763   0.64916   1.000
    O10     O    0.76921   0.01170   0.64009   1.000
    O11     O    0.75705   0.88864   0.73401   1.000
    Zr12    Zr   0.00324   0.89426   0.62107   1.000
    O13     O    0.90057   0.89415   0.70285   1.000
    O14     O    0.90839   0.74943   0.61341   1.000
    O15     O    0.09452   0.82893   0.56292   1.000
    O16     O    0.91298   0.02402   0.60884   1.000
    Zr17    Zr   0.34931   0.62068   0.16651   1.000
    O18     O    0.24281   0.61135   0.23415   1.000
    O19     O    0.23059   0.48791   0.14041   1.000
    O20     O    0.23964   0.76223   0.14930   1.000
    Zr21    Zr   0.50323   0.89426   0.62107   1.000
    O22     O    0.59451   0.82892   0.56292   1.000
    O23     O    0.41292   0.02402   0.60884   1.000
    O24     O    0.40833   0.74943   0.61330   1.000
    O25     O    0.40051   0.89415   0.70285   1.000
    Zr26    Zr   0.84931   0.62068   0.16651   1.000
    O27     O    0.73058   0.48790   0.14040   1.000
    O28     O    0.74281   0.61135   0.23415   1.000
    O29     O    0.73963   0.76223   0.14930   1.000
    Zr30    Zr   0.49666   0.60589   0.12093   1.000
    O31     O    0.59935   0.60602   0.20273   1.000
    O32     O    0.58688   0.47610   0.10880   1.000
    O33     O    0.59154   0.75062   0.11333   1.000
    O34     O    0.40508   0.67121   0.06265   1.000
    Zr35    Zr   0.49675   0.10572   0.37892   1.000
    O36     O    0.59160   0.25055   0.38658   1.000
    O37     O    0.58700   0.97596   0.39114   1.000
    O38     O    0.40541   0.17105   0.43706   1.000
    O39     O    0.59941   0.10583   0.29713   1.000
    Zr40    Zr   0.65067   0.37931   0.83348   1.000
    O41     O    0.75711   0.38863   0.76583   1.000
    O42     O    0.76934   0.51208   0.85958   1.000
    O43     O    0.76028   0.23776   0.85067   1.000
    Zr44    Zr   0.99665   0.60589   0.12093   1.000
    O45     O    0.90513   0.67121   0.06265   1.000
    O46     O    0.08687   0.47610   0.10880   1.000
    O47     O    0.09153   0.75062   0.11332   1.000
    O48     O    0.09935   0.60602   0.20273   1.000
    Zr49    Zr   0.50332   0.39409   0.87905   1.000
    O50     O    0.40057   0.39396   0.79725   1.000
    O51     O    0.59484   0.32877   0.93733   1.000
    O52     O    0.41304   0.52388   0.89117   1.000
    O53     O    0.40838   0.24937   0.88665   1.000
    Zr54    Zr   0.34941   0.12076   0.33368   1.000
    O55     O    0.23973   0.26235   0.35082   1.000
    O56     O    0.23071   0.98828   0.35989   1.000
    O57     O    0.24287   0.11134   0.26597   1.000
    Zr58    Zr   0.84940   0.12076   0.33368   1.000
    O59     O    0.73071   0.98828   0.35988   1.000
    O60     O    0.73972   0.26235   0.35081   1.000
    O61     O    0.74286   0.11134   0.26597   1.000
    Zr62    Zr   0.99674   0.10572   0.37892   1.000
    O63     O    0.90547   0.17105   0.43707   1.000
    O64     O    0.08700   0.97596   0.39113   1.000
    O65     O    0.09159   0.25055   0.38658   1.000
    O66     O    0.09941   0.10583   0.29713   1.000
    Zr67    Zr   0.15067   0.37931   0.83348   1.000
    O68     O    0.26940   0.51208   0.85958   1.000
    O69     O    0.25717   0.38863   0.76583   1.000
    O70     O    0.26035   0.23776   0.85068   1.000
    Zr71    Zr   0.15058   0.87922   0.66630   1.000
    O72     O    0.26927   0.01170   0.64009   1.000
    O73     O    0.25712   0.88864   0.73401   1.000
    O74     O    0.26026   0.73763   0.64916   1.000
    Zr75    Zr   0.00333   0.39409   0.87905   1.000
    O76     O    0.90063   0.39396   0.79725   1.000
    O77     O    0.90845   0.24937   0.88666   1.000
    O78     O    0.09485   0.32877   0.93733   1.000
    O79     O    0.91311   0.52389   0.89117   1.000
loop_
    _geom_bond_atom_site_label_1
    _geom_bond_atom_site_label_2
    _geom_bond_distance
    _geom_bond_site_symmetry_2
    _ccdc_geom_bond_type
    Zr8    O9        3.00017      .   S
    N5     O9        8.56971  1_455   S
    Zr8    O10       2.95442  1_565   S
    N5     O10       8.05969  1_455   S
    Zr8    O11       2.72965      .   S
    N3     O11       8.09520  1_455   S
    Zr12   O13       2.95796  1_455   S
    N2     O13       8.08752      .   S
    Zr12   O14       2.69647  1_455   S
    N4     O14       7.78163      .   S
    Zr12   O15       2.55180      .   S
    N1     O15       7.73351      .   S
    Zr12   O16       2.60393  1_465   S
    N4     O16       7.96016      .   S
    Zr17   O18       2.72208      .   S
    N0     O18       8.07797  1_655   S
    Zr17   O19       2.96105      .   S
    N6     O19       8.06690  1_655   S
    Zr17   O20       3.00135      .   S
    N6     O20       8.57261  1_645   S
    Zr21   O22       2.55185      .   S
    N0     O22       7.73355      .   S
    Zr21   O23       2.60465  1_565   S
    N5     O23       7.96254      .   S
    Zr21   O24       2.69734      .   S
    N5     O24       7.78357      .   S
    Zr21   O25       2.95859      .   S
    N3     O25       8.08968      .   S
    Zr26   O27       2.96104      .   S
    N7     O27       8.06686      .   S
    Zr26   O28       2.72205      .   S
    N1     O28       8.07787      .   S
    Zr26   O29       3.00134      .   S
    N7     O29       8.57256  1_545   S
    Zr30   O31       2.96544      .   S
    N0     O31       8.10840      .   S
    Zr30   O32       2.60309      .   S
    N6     O32       7.96579      .   S
    Zr30   O33       2.69454      .   S
    N6     O33       7.77664  1_545   S
    Zr30   O34       2.56136      .   S
    N3     O34       7.73962  1_556   S
    Zr35   O36       2.69642      .   S
    N0     O36       7.78148      .   S
    Zr35   O37       2.60390  1_545   S
    N0     O37       7.96016      .   S
    Zr35   O38       2.55238      .   S
    N5     O38       7.73559      .   S
    Zr35   O39       2.95798      .   S
    N6     O39       8.08759      .   S
    Zr40   O41       2.72149      .   S
    N5     O41       8.07586  1_455   S
    Zr40   O42       2.96026      .   S
    N3     O42       8.06451  1_455   S
    Zr40   O43       3.00055      .   S
    N3     O43       8.57019  1_465   S
    Zr44   O45       2.56056      .   S
    N2     O45       7.73709  1_556   S
    Zr44   O46       2.60312  1_655   S
    N7     O46       7.96587      .   S
    Zr44   O47       2.69456  1_655   S
    N7     O47       7.77671  1_545   S
    Zr44   O48       2.96547  1_655   S
    N1     O48       8.10841      .   S
    Zr49   O50       2.96622      .   S
    N5     O50       8.11088      .   S
    Zr49   O51       2.56059      .   S
    N6     O51       7.73726  1_554   S
    Zr49   O52       2.60378      .   S
    N3     O52       7.96821      .   S
    Zr49   O53       2.69521      .   S
    N3     O53       7.77892  1_565   S
    Zr54   O55       3.00086      .   S
    N0     O55       8.57197  1_655   S
    Zr54   O56       2.95517  1_545   S
    N0     O56       8.06196  1_655   S
    Zr54   O57       2.73040      .   S
    N6     O57       8.09775  1_655   S
    Zr58   O59       2.95515  1_545   S
    N1     O59       8.06189      .   S
    Zr58   O60       3.00084      .   S
    N1     O60       8.57190      .   S
    Zr58   O61       2.73041      .   S
    N7     O61       8.09777      .   S
    Zr62   O63       2.55166      .   S
    N4     O63       7.73328      .   S
    Zr62   O64       2.60391  1_645   S
    N1     O64       7.96022      .   S
    Zr62   O65       2.69644  1_655   S
    N1     O65       7.78155      .   S
    Zr62   O66       2.95806  1_655   S
    N7     O66       8.08772      .   S
    Zr67   O68       2.96101      .   S
    N2     O68       8.06682      .   S
    Zr67   O69       2.72217      .   S
    N4     O69       8.07813      .   S
    Zr67   O70       3.00129      .   S
    N2     O70       8.57258  1_565   S
    Zr71   O72       2.95514  1_565   S
    N4     O72       8.06189      .   S
    Zr71   O73       2.73042      .   S
    N2     O73       8.09769      .   S
    Zr71   O74       3.00088      .   S
    N4     O74       8.57201      .   S
    Zr75   O76       2.96551  1_455   S
    N4     O76       8.10852      .   S
    Zr75   O77       2.69456  1_455   S
    N2     O77       7.77669  1_565   S
    Zr75   O78       2.56051      .   S
    N7     O78       7.73712  1_554   S
    Zr75   O79       2.60308  1_455   S
    N2     O79       7.96583      .   S
