# CIF file generated by openbabel 2.4.90, see http://openbabel.sf.net
data_I
_chemical_name_common ''
_cell_length_a 13.687
_cell_length_b 17.852
_cell_length_c 21.787
_cell_angle_alpha 89.91
_cell_angle_beta 89.977
_cell_angle_gamma 89.998
_space_group_name_H-M_alt 'P 1'
_space_group_name_Hall 'P 1'
loop_
    _symmetry_equiv_pos_as_xyz
    x,y,z
loop_
    _atom_site_label
    _atom_site_type_symbol
    _atom_site_fract_x
    _atom_site_fract_y
    _atom_site_fract_z
    _atom_site_occupancy
    H0      H    0.04338   0.92897   0.17374   1.000
    H1      H    0.97632   0.91404   0.10443   1.000
    H2      H    0.00932   0.06627   0.16684   1.000
    H3      H    0.95691   0.05420   0.09322   1.000
    H4      H    0.34269   0.06058   0.15622   1.000
    H5      H    0.40165   0.06453   0.08267   1.000
    H6      H    0.46216   0.93326   0.09720   1.000
    H7      H    0.40158   0.92969   0.17006   1.000
    H8      H    0.26192   0.96834   0.91478   1.000
    H9      H    0.13094   0.97120   0.91558   1.000
    H10     H    0.25770   0.83064   0.93215   1.000
    H11     H    0.12645   0.83235   0.92558   1.000
    H12     H    0.38393   0.64458   0.08443   1.000
    H13     H    0.32715   0.70301   0.14025   1.000
    H14     H    0.43901   0.75805   0.02565   1.000
    H15     H    0.38007   0.81682   0.07901   1.000
    H16     H    0.95407   0.77720   0.03620   1.000
    H17     H    0.01990   0.80079   0.10397   1.000
    H18     H    0.98223   0.67387   0.14902   1.000
    H19     H    0.91686   0.65009   0.08179   1.000
    H20     H    0.09875   0.58334   0.90992   1.000
    H21     H    0.22869   0.58138   0.90827   1.000
    H22     H    0.10322   0.70824   0.85404   1.000
    H23     H    0.23181   0.70616   0.85568   1.000
    H24     H    0.95673   0.07489   0.67169   1.000
    H25     H    0.02310   0.08717   0.60169   1.000
    H26     H    0.98953   0.93717   0.66790   1.000
    H27     H    0.04197   0.94668   0.59400   1.000
    H28     H    0.65766   0.94011   0.65700   1.000
    H29     H    0.59691   0.93710   0.58413   1.000
    H30     H    0.53809   0.06872   0.59979   1.000
    H31     H    0.59970   0.07084   0.67228   1.000
    H32     H    0.73253   0.03474   0.41521   1.000
    H33     H    0.86336   0.02939   0.41474   1.000
    H34     H    0.74078   0.17210   0.43136   1.000
    H35     H    0.87203   0.16836   0.42530   1.000
    H36     H    0.61637   0.35669   0.58561   1.000
    H37     H    0.67337   0.29760   0.64101   1.000
    H38     H    0.56185   0.24390   0.52606   1.000
    H39     H    0.62067   0.18447   0.57912   1.000
    H40     H    0.04701   0.22575   0.53643   1.000
    H41     H    0.98135   0.20080   0.60405   1.000
    H42     H    0.01674   0.32769   0.64967   1.000
    H43     H    0.08212   0.35272   0.58267   1.000
    H44     H    0.90060   0.41880   0.41020   1.000
    H45     H    0.77063   0.42042   0.40888   1.000
    H46     H    0.89633   0.29401   0.35447   1.000
    H47     H    0.76770   0.29610   0.35607   1.000
    H48     H    0.45681   0.42817   0.17282   1.000
    H49     H    0.52347   0.41453   0.10316   1.000
    H50     H    0.49027   0.56579   0.16712   1.000
    H51     H    0.54297   0.55475   0.09348   1.000
    H52     H    0.15770   0.56143   0.15666   1.000
    H53     H    0.09812   0.56529   0.08336   1.000
    H54     H    0.03755   0.43403   0.09832   1.000
    H55     H    0.09854   0.43066   0.17090   1.000
    H56     H    0.23541   0.46775   0.91506   1.000
    H57     H    0.36627   0.47269   0.91510   1.000
    H58     H    0.24332   0.33021   0.93216   1.000
    H59     H    0.37444   0.33381   0.92532   1.000
    H60     H    0.11803   0.14542   0.08722   1.000
    H61     H    0.17487   0.20664   0.14090   1.000
    H62     H    0.06026   0.25592   0.02569   1.000
    H63     H    0.11858   0.31745   0.07716   1.000
    H64     H    0.54763   0.27552   0.03428   1.000
    H65     H    0.48225   0.30182   0.10154   1.000
    H66     H    0.51683   0.17517   0.14869   1.000
    H67     H    0.58297   0.14950   0.08225   1.000
    H68     H    0.39826   0.08206   0.90971   1.000
    H69     H    0.26827   0.08184   0.90853   1.000
    H70     H    0.39592   0.20744   0.85426   1.000
    H71     H    0.26730   0.20645   0.85588   1.000
    H72     H    0.54289   0.57440   0.67205   1.000
    H73     H    0.47667   0.58763   0.60215   1.000
    H74     H    0.50981   0.43669   0.66706   1.000
    H75     H    0.45712   0.44740   0.59330   1.000
    H76     H    0.84209   0.44057   0.65710   1.000
    H77     H    0.90251   0.43701   0.58406   1.000
    H78     H    0.96130   0.56890   0.59904   1.000
    H79     H    0.90044   0.57117   0.67183   1.000
    H80     H    0.76643   0.53448   0.41500   1.000
    H81     H    0.63554   0.52988   0.41485   1.000
    H82     H    0.75944   0.67189   0.43150   1.000
    H83     H    0.62812   0.66882   0.42565   1.000
    H84     H    0.88341   0.85805   0.58477   1.000
    H85     H    0.82635   0.79965   0.64066   1.000
    H86     H    0.93782   0.74448   0.52609   1.000
    H87     H    0.87902   0.68578   0.57973   1.000
    C88     C    0.43880   0.80515   0.61150   1.000
    C89     C    0.66517   0.88437   0.40890   1.000
    C90     C    0.66675   0.83212   0.35368   1.000
    H91     H    0.45325   0.72600   0.53603   1.000
    H92     H    0.51896   0.70121   0.60364   1.000
    H93     H    0.48291   0.82785   0.64930   1.000
    H94     H    0.41771   0.85294   0.58236   1.000
    H95     H    0.59914   0.91892   0.40949   1.000
    H96     H    0.72912   0.92074   0.40801   1.000
    H97     H    0.60366   0.79416   0.35370   1.000
    H98     H    0.73226   0.79635   0.35523   1.000
    C99     C    0.19415   0.99072   0.12381   1.000
    C100    C    0.28516   0.97572   0.02610   1.000
    C101    C    0.10915   0.94514   0.03083   1.000
    C102    C    0.00000   0.95325   0.12935   1.000
    C103    C    0.96829   0.02695   0.13811   1.000
    C104    C    0.36653   0.02788   0.11651   1.000
    C105    C    0.43792   0.96655   0.13650   1.000
    C106    C    0.19586   0.94176   0.93262   1.000
    C107    C    0.19462   0.85990   0.91202   1.000
    C108    C    0.25834   0.66082   0.99920   1.000
    C109    C    0.08097   0.68585   0.99195   1.000
    C110    C    0.17506   0.73396   0.08066   1.000
    C111    C    0.34850   0.69871   0.09200   1.000
    C112    C    0.41724   0.76253   0.07411   1.000
    C113    C    0.99708   0.75478   0.07432   1.000
    C114    C    0.93851   0.69733   0.11133   1.000
    O115    O    0.99601   0.32182   0.46414   1.000
    O116    O    0.82133   0.23126   0.62886   1.000
    C117    C    0.16481   0.61782   0.90923   1.000
    C118    C    0.16637   0.67034   0.85407   1.000
    C119    C    0.80526   0.01119   0.62361   1.000
    C120    C    0.71239   0.02556   0.52663   1.000
    C121    C    0.88827   0.05699   0.52991   1.000
    C122    C    0.97664   0.04902   0.62783   1.000
    C123    C    0.03080   0.97543   0.63826   1.000
    C124    C    0.63303   0.97329   0.61776   1.000
    C125    C    0.56254   0.03469   0.63867   1.000
    C126    C    0.79983   0.06006   0.43235   1.000
    C127    C    0.80334   0.14186   0.41159   1.000
    C128    C    0.74177   0.34122   0.50014   1.000
    C129    C    0.91886   0.31522   0.49186   1.000
    C130    C    0.82556   0.26807   0.58142   1.000
    C131    C    0.65196   0.30253   0.59281   1.000
    C132    C    0.58349   0.23881   0.57451   1.000
    C133    C    0.00000   0.24734   0.57463   1.000
    C134    C    0.06105   0.30498   0.61197   1.000
    C135    C    0.83468   0.38415   0.40972   1.000
    C136    C    0.83318   0.33190   0.35450   1.000
    C137    C    0.30569   0.49093   0.12381   1.000
    C138    C    0.21398   0.47663   0.02638   1.000
    C139    C    0.38978   0.44535   0.03049   1.000
    C140    C    0.47705   0.45325   0.12867   1.000
    C141    C    0.53149   0.52688   0.13811   1.000
    C142    C    0.13346   0.52867   0.11709   1.000
    C143    C    0.06210   0.46749   0.13744   1.000
    C144    C    0.30240   0.44223   0.93253   1.000
    C145    C    0.30559   0.36042   0.91190   1.000
    C146    C    0.24141   0.16037   0.00000   1.000
    C147    C    0.41854   0.18583   0.99100   1.000
    C148    C    0.32575   0.23566   0.07960   1.000
    C149    C    0.15267   0.20018   0.09297   1.000
    C150    C    0.08249   0.26256   0.07390   1.000
    C151    C    0.50413   0.25469   0.07280   1.000
    C152    C    0.56146   0.19756   0.11094   1.000
    C153    C    0.33297   0.11742   0.90930   1.000
    C154    C    0.33224   0.17008   0.85423   1.000
    C155    C    0.69437   0.51130   0.62364   1.000
    C156    C    0.78706   0.52559   0.52655   1.000
    C157    C    0.61125   0.55708   0.53001   1.000
    C158    C    0.52298   0.54908   0.62799   1.000
    C159    C    0.46858   0.47544   0.63783   1.000
    C160    C    0.86661   0.47346   0.61760   1.000
    C161    C    0.93727   0.53496   0.63810   1.000
    C162    C    0.69945   0.56014   0.43237   1.000
    C163    C    0.69658   0.64204   0.41175   1.000
    C164    C    0.75806   0.84196   0.49958   1.000
    C165    C    0.58112   0.81560   0.49137   1.000
    C166    C    0.67442   0.76893   0.58100   1.000
    C167    C    0.84780   0.80398   0.59242   1.000
    C168    C    0.91624   0.74003   0.57460   1.000
    C169    C    0.49657   0.74769   0.57423   1.000
    N170    N    0.11270   0.96250   0.09333   1.000
    N171    N    0.27847   0.99692   0.08771   1.000
    N172    N    0.19794   0.95143   0.99961   1.000
    N173    N    0.25723   0.69844   0.05561   1.000
    N174    N    0.08782   0.72265   0.04858   1.000
    N175    N    0.16919   0.65871   0.96814   1.000
    N176    N    0.88627   0.03911   0.59239   1.000
    N177    N    0.72046   0.00430   0.58811   1.000
    N178    N    0.79894   0.05032   0.49937   1.000
    N179    N    0.74316   0.30331   0.55638   1.000
    N180    N    0.91254   0.27904   0.54888   1.000
    N181    N    0.83062   0.34307   0.46862   1.000
    N182    N    0.38696   0.46296   0.09295   1.000
    N183    N    0.22117   0.49753   0.08794   1.000
    N184    N    0.30084   0.45195   0.99950   1.000
    N185    N    0.24333   0.19928   0.05591   1.000
    N186    N    0.41282   0.22287   0.04762   1.000
    N187    N    0.32983   0.15833   0.96821   1.000
    N188    N    0.61336   0.53933   0.59251   1.000
    N189    N    0.77910   0.50438   0.58805   1.000
    N190    N    0.70047   0.55028   0.49937   1.000
    N191    N    0.75666   0.80435   0.55596   1.000
    N192    N    0.58748   0.77961   0.54846   1.000
    N193    N    0.66934   0.84336   0.46790   1.000
    O194    O    0.19199   0.00000   0.17787   1.000
    O195    O    0.36217   0.97980   0.99767   1.000
    O196    O    0.03412   0.92495   0.00519   1.000
    O197    O    0.33288   0.63154   0.97916   1.000
    O198    O    0.00332   0.67840   0.96501   1.000
    O199    O    0.17952   0.77121   0.12777   1.000
    O200    O    0.80816   0.99349   0.67780   1.000
    O201    O    0.63482   0.02125   0.49878   1.000
    O202    O    0.96245   0.07799   0.50369   1.000
    O203    O    0.66723   0.37093   0.48039   1.000
    O204    O    0.30811   0.50886   0.17795   1.000
    O205    O    0.13689   0.48121   0.99804   1.000
    O206    O    0.46440   0.42474   0.00400   1.000
    O207    O    0.16668   0.13023   0.98135   1.000
    O208    O    0.49548   0.17841   0.96319   1.000
    O209    O    0.32153   0.27469   0.12578   1.000
    O210    O    0.69158   0.49356   0.67785   1.000
    O211    O    0.86458   0.52130   0.49864   1.000
    O212    O    0.53707   0.57807   0.50382   1.000
    O213    O    0.83259   0.87180   0.47993   1.000
    O214    O    0.50387   0.82206   0.46380   1.000
    O215    O    0.67870   0.73224   0.62855   1.000
loop_
    _geom_bond_atom_site_label_1
    _geom_bond_atom_site_label_2
    _geom_bond_distance
    _geom_bond_site_symmetry_2
    _ccdc_geom_bond_type
    C146   N185      1.40338      .   S
    C146   N187      1.39464  1_554   S
    C146   O207      1.22552  1_554   S
    O206   C139      1.22953      .   S
    O196   C101      1.22367      .   S
    H14    C112      1.09996      .   S
    H62    C150      1.10021      .   S
    C100   N171      1.39815      .   S
    C100   O195      1.22446  1_554   S
    C100   N172      1.39560  1_554   S
    C138   N183      1.39621      .   S
    C138   O205      1.22538  1_554   S
    C138   N184      1.39660  1_554   S
    C139   N182      1.39765      .   S
    C139   N184      1.39716  1_554   S
    C101   N170      1.39786      .   S
    C101   N172      1.39693  1_554   S
    H64    C151      1.09344      .   S
    H16    C113      1.09353      .   S
    N186   C151      1.47897      .   S
    N186   C148      1.39913      .   S
    N186   C147      1.40267  1_554   S
    N174   C113      1.47871  1_455   S
    N174   C110      1.39869      .   S
    N174   C109      1.40188  1_554   S
    N173   C110      1.40193      .   S
    N173   C111      1.47978      .   S
    N173   C108      1.40149  1_554   S
    N185   C148      1.40093      .   S
    N185   C149      1.48023      .   S
    C151   H65       1.09138      .   S
    C151   C152      1.53108      .   S
    C150   H63       1.09981      .   S
    C150   C149      1.52783      .   S
    C112   H15       1.09999      .   S
    C112   C111      1.52753      .   S
    C113   H17       1.09150  1_655   S
    C113   C114      1.53022      .   S
    C148   O209      1.22611      .   S
    C110   O199      1.22534      .   S
    H19    C114      1.10233      .   S
    H67    C152      1.10228      .   S
    H5     C104      1.09583      .   S
    H53    C142      1.09562      .   S
    H12    C111      1.09397      .   S
    H60    C149      1.09388      .   S
    N171   C104      1.46754  1_565   S
    N171   C99       1.40070      .   S
    N183   C142      1.46761      .   S
    N183   C137      1.40109      .   S
    C111   H13       1.09379      .   S
    N182   C137      1.39253      .   S
    N182   C140      1.46857      .   S
    C149   H61       1.09395      .   S
    H3     C103      1.10275      .   S
    N170   C99       1.39255      .   S
    N170   C102      1.73814      .   S
    H51    C141      1.10279      .   S
    H6     C105      1.09445      .   S
    H54    C143      1.09452      .   S
    H49    C140      1.09150      .   S
    H1     C102      0.94396  1_655   S
    C152   H66       1.09902      .   S
    C114   H18       1.09868      .   S
    C104   C105      1.53018  1_545   S
    C104   H4        1.09413      .   S
    C142   C143      1.53022      .   S
    C142   H52       1.09418      .   S
    C137   O204      1.22313      .   S
    C99    O194      1.19002  1_565   S
    C140   C141      1.52517      .   S
    C140   H48       1.09592      .   S
    C102   C103      1.39875  1_465   S
    C102   H0        1.21446      .   S
    C105   H7        1.10143      .   S
    C143   H55       1.10053      .   S
    C141   H50       1.09610      .   S
    C103   H2        1.09622  1_655   S
    C90    H97       1.09763      .   S
    C90    H98       1.10126      .   S
    C90    C89       1.52365      .   S
    H46    C136      1.09760      .   S
    C136   H47       1.10123      .   S
    C136   C135      1.52359      .   S
    H96    C89       1.08999      .   S
    H45    C135      1.08991      .   S
    C89    H95       1.09418      .   S
    C89    N193      1.47948      .   S
    C135   H44       1.09402      .   S
    C135   N181      1.47808      .   S
    C127   H35       1.09430      .   S
    C127   H34       1.10018      .   S
    C127   C126      1.52889      .   S
    C163   H83       1.09479      .   S
    C163   H82       1.10010      .   S
    C163   C162      1.52934      .   S
    H33    C126      1.09709      .   S
    H81    C162      1.09709      .   S
    H80    C162      1.09256      .   S
    H32    C126      1.09221      .   S
    C126   N178      1.47025      .   S
    C162   N190      1.47010      .   S
    O214   C165      1.22163      .   S
    O115   C129      1.22184      .   S
    N193   C165      1.40133      .   S
    N193   C164      1.39720      .   S
    N181   C129      1.40065      .   S
    N181   C128      1.39663      .   S
    O213   C164      1.22735      .   S
    O203   C128      1.22754      .   S
    C165   N192      1.40186      .   S
    C129   N180      1.40189      .   S
    O211   C156      1.22522      .   S
    O201   C120      1.22549      .   S
    N178   C120      1.39646      .   S
    N178   C121      1.39734      .   S
    N190   C156      1.39608      .   S
    N190   C157      1.39690      .   S
    C164   N191      1.39909      .   S
    C128   N179      1.39900      .   S
    O202   C121      1.22343      .   S
    O212   C157      1.22339      .   S
    H38    C132      1.10009      .   S
    H86    C168      1.10001      .   S
    C156   N189      1.39600      .   S
    C120   N177      1.39603      .   S
    C121   N176      1.39794      .   S
    C157   N188      1.39790      .   S
    H91    C169      1.09343      .   S
    H40    C133      1.12060      .   S
    N192   C169      1.47876      .   S
    N192   C166      1.39823      .   S
    N180   C133      1.43787  1_655   S
    N180   C130      1.39902      .   S
    N191   C166      1.40104      .   S
    N191   C167      1.47914      .   S
    N179   C130      1.40161      .   S
    N179   C131      1.47900      .   S
    C169   H92       1.09153      .   S
    C169   C88       1.52937      .   S
    C132   H39       1.09991      .   S
    C132   C131      1.52738      .   S
    C168   H87       1.09995      .   S
    C168   C167      1.52734      .   S
    C133   H41       1.07905  1_455   S
    C133   C134      1.55622      .   S
    C166   O215      1.22619      .   S
    C130   O116      1.22527      .   S
    H94    C88       1.10118      .   S
    H43    C134      1.10240      .   S
    H77    C160      1.09549      .   S
    H29    C124      1.09566      .   S
    H84    C167      1.09372      .   S
    H36    C131      1.09377      .   S
    N189   C160      1.46737      .   S
    N189   C155      1.40026      .   S
    N177   C124      1.46755  1_545   S
    N177   C119      1.40058      .   S
    N176   C119      1.39241      .   S
    N176   C122      1.46923      .   S
    C167   H85       1.09376      .   S
    N188   C155      1.39261      .   S
    N188   C158      1.46890      .   S
    C131   H37       1.09376      .   S
    H75    C159      1.10365      .   S
    H27    C123      1.10363      .   S
    H78    C161      1.09432      .   S
    H30    C125      1.09426      .   S
    H25    C122      1.09141  1_455   S
    H73    C158      1.09150      .   S
    C88    H93       1.09927      .   S
    C134   H42       1.09884      .   S
    C160   C161      1.53045      .   S
    C160   H76       1.09375      .   S
    C124   C125      1.53001  1_565   S
    C124   H28       1.09271      .   S
    C119   O200      1.22235  1_545   S
    C155   O210      1.22288      .   S
    C122   C123      1.52517  1_645   S
    C122   H24       1.09632      .   S
    C158   C159      1.52570      .   S
    C158   H72       1.09618      .   S
    C159   H74       1.09608      .   S
    C161   H79       1.10141      .   S
    C123   H26       1.09585  1_455   S
    C125   H31       1.10150      .   S
    H22    C118      1.09761      .   S
    C118   H23       1.10119      .   S
    C118   C117      1.52323      .   S
    C154   H70       1.09752      .   S
    C154   H71       1.10126      .   S
    C154   C153      1.52310      .   S
    H21    C117      1.08986      .   S
    H69    C153      1.08998      .   S
    C117   H20       1.09395      .   S
    C117   N175      1.47880      .   S
    C153   H68       1.09409      .   S
    C153   N187      1.47833      .   S
    C145   H59       1.09494      .   S
    C145   H58       1.10043      .   S
    C145   C144      1.52939      .   S
    C107   H11       1.09500      .   S
    C107   H10       1.10012      .   S
    C107   C106      1.52955      .   S
    H8     C106      1.09222      .   S
    H56    C144      1.09222      .   S
    H57    C144      1.09695      .   S
    H9     C106      1.09680      .   S
    C144   N184      1.46978      .   S
    C106   N172      1.47023      .   S
    O208   C147      1.22198      .   S
    O198   C109      1.22160      .   S
    N175   C109      1.40080      .   S
    N175   C108      1.39609      .   S
    N187   C147      1.40106      .   S
    O197   C108      1.22684      .   S
