# CIF file generated by openbabel 2.4.90, see http://openbabel.sf.net
data_I
_chemical_name_common ''
_cell_length_a 13.687
_cell_length_b 17.852
_cell_length_c 21.787
_cell_angle_alpha 89.91
_cell_angle_beta 89.977
_cell_angle_gamma 89.998
_space_group_name_H-M_alt 'P 1'
_space_group_name_Hall 'P 1'
loop_
    _symmetry_equiv_pos_as_xyz
    x,y,z
loop_
    _atom_site_label
    _atom_site_type_symbol
    _atom_site_fract_x
    _atom_site_fract_y
    _atom_site_fract_z
    _atom_site_occupancy
    Cd0     Cd   0.67597   0.05892   0.23460   1.000
    Cd1     Cd   0.85185   0.20114   0.21502   1.000
    Cd2     Cd   0.30271   0.12855   0.64930   1.000
    Cd3     Cd   0.32303   0.94338   0.73579   1.000
    Cd4     Cd   0.14768   0.80182   0.71464   1.000
    Cd5     Cd   0.80282   0.37349   0.14920   1.000
    Cd6     Cd   0.82343   0.55883   0.23526   1.000
    Cd7     Cd   0.64785   0.70091   0.21490   1.000
    Cd8     Cd   0.19685   0.62877   0.64912   1.000
    Cd9     Cd   0.17653   0.44341   0.73548   1.000
    Cd10    Cd   0.35211   0.30146   0.71472   1.000
    Cd11    Cd   0.69727   0.87356   0.14849   1.000
    C12     C    0.34468   0.77370   0.63877   1.000
    C13     C    0.86779   0.01349   0.16520   1.000
    C14     C    0.52550   0.00000   0.16765   1.000
    C15     C    0.20578   0.85831   0.84247   1.000
    C16     C    0.51079   0.76629   0.11220   1.000
    O17     O    0.47840   0.28512   0.65368   1.000
    O18     O    0.43195   0.18160   0.59992   1.000
    O19     O    0.82017   0.44310   0.29288   1.000
    C20     C    0.84475   0.72929   0.13853   1.000
    C21     C    0.16961   0.62939   0.79299   1.000
    C22     C    0.13148   0.98925   0.66504   1.000
    C23     C    0.47505   0.00041   0.67007   1.000
    C24     C    0.79339   0.14368   0.34198   1.000
    C25     C    0.48982   0.23472   0.61255   1.000
    C26     C    0.15514   0.27363   0.63922   1.000
    C27     C    0.83008   0.37336   0.29360   1.000
    C28     C    0.63195   0.51333   0.16524   1.000
    C29     C    0.97478   0.50203   0.16878   1.000
    C30     C    0.29422   0.35855   0.84238   1.000
    C31     C    0.98915   0.26663   0.11234   1.000
    C32     C    0.65518   0.22939   0.13830   1.000
    C33     C    0.32850   0.12925   0.79313   1.000
    C34     C    0.36809   0.48920   0.66495   1.000
    C35     C    0.02513   0.50069   0.66900   1.000
    C36     C    0.70650   0.64383   0.34210   1.000
    C37     C    0.00996   0.73631   0.61259   1.000
    C38     C    0.66979   0.87324   0.29253   1.000
    O39     O    0.82919   0.95034   0.15741   1.000
    O40     O    0.82815   0.06832   0.19461   1.000
    O41     O    0.51262   0.04748   0.21074   1.000
    O42     O    0.61270   0.98435   0.14952   1.000
    O43     O    0.28735   0.88095   0.82136   1.000
    O44     O    0.13278   0.83520   0.81150   1.000
    O45     O    0.52101   0.71666   0.15430   1.000
    O46     O    0.56980   0.81847   0.09889   1.000
    O47     O    0.17980   0.55971   0.79192   1.000
    O48     O    0.16285   0.67162   0.74420   1.000
    O49     O    0.80398   0.69033   0.18126   1.000
    O50     O    0.81278   0.79041   0.11723   1.000
    O51     O    0.17039   0.05209   0.65586   1.000
    O52     O    0.17078   0.93507   0.69551   1.000
    O53     O    0.48765   0.95277   0.71243   1.000
    O54     O    0.38772   0.01821   0.65280   1.000
    O55     O    0.71207   0.12178   0.32012   1.000
    O56     O    0.86730   0.16649   0.31167   1.000
    O57     O    0.83684   0.33148   0.24474   1.000
    O58     O    0.19584   0.31301   0.68164   1.000
    O59     O    0.18752   0.21254   0.61835   1.000
    O60     O    0.67063   0.45018   0.15736   1.000
    O61     O    0.67150   0.56812   0.19469   1.000
    O62     O    0.98760   0.54985   0.21088   1.000
    O63     O    0.88736   0.48412   0.15184   1.000
    O64     O    0.21268   0.38119   0.82127   1.000
    O65     O    0.36712   0.33512   0.81149   1.000
    O66     O    0.97896   0.21718   0.15450   1.000
    O67     O    0.93011   0.31879   0.09890   1.000
    O68     O    0.31660   0.05973   0.79198   1.000
    O69     O    0.33677   0.17141   0.74439   1.000
    O70     O    0.69569   0.19037   0.18115   1.000
    O71     O    0.68734   0.29052   0.11723   1.000
    O72     O    0.32920   0.55210   0.65606   1.000
    O73     O    0.32894   0.43492   0.69543   1.000
    O74     O    0.01273   0.45346   0.71185   1.000
    O75     O    0.11221   0.51809   0.65109   1.000
    O76     O    0.78796   0.62204   0.32035   1.000
    O77     O    0.63259   0.66636   0.31176   1.000
    O78     O    0.02127   0.78694   0.65354   1.000
    O79     O    0.06800   0.68324   0.60009   1.000
    O80     O    0.67990   0.94293   0.29122   1.000
    O81     O    0.66286   0.83109   0.24384   1.000
    O82     O    0.30364   0.81333   0.68089   1.000
    O83     O    0.31264   0.71237   0.61817   1.000
    Og84    Og   0.37605   0.78418   0.62968   1.000
    Og85    Og   0.90129   0.01798   0.15617   1.000
    Og86    Og   0.49631   0.98885   0.15727   1.000
    Og87    Og   0.20206   0.85884   0.86565   1.000
    Og88    Og   0.47961   0.76503   0.09950   1.000
    Og89    Og   0.87601   0.71864   0.12946   1.000
    Og90    Og   0.16853   0.64304   0.81335   1.000
    Og91    Og   0.09792   0.98465   0.65611   1.000
    Og92    Og   0.50422   0.01184   0.65960   1.000
    Og93    Og   0.79670   0.14308   0.36518   1.000
    Og94    Og   0.52104   0.23608   0.59987   1.000
    Og95    Og   0.12377   0.28408   0.63014   1.000
    Og96    Og   0.83111   0.35954   0.31390   1.000
    Og97    Og   0.59846   0.51784   0.15620   1.000
    Og98    Og   0.00388   0.49052   0.15833   1.000
    Og99    Og   0.29801   0.35917   0.86555   1.000
    Og100   Og   0.02026   0.26527   0.09953   1.000
    Og101   Og   0.62394   0.21878   0.12918   1.000
    Og102   Og   0.32975   0.14286   0.81350   1.000
    Og103   Og   0.40158   0.48461   0.65591   1.000
    Og104   Og   0.99585   0.51212   0.65870   1.000
    Og105   Og   0.70319   0.64323   0.36532   1.000
    Og106   Og   0.97872   0.73755   0.59993   1.000
    Og107   Og   0.66878   0.85954   0.31291   1.000
loop_
    _geom_bond_atom_site_label_1
    _geom_bond_atom_site_label_2
    _geom_bond_distance
    _geom_bond_site_symmetry_2
    _ccdc_geom_bond_type
    O46    C16       1.26622      .   S
    O46    Cd11      2.27688      .   S
    O67    C31       1.26690      .   S
    O67    Cd5       2.27843      .   S
    C16    O45       1.28186      .   S
    C31    O66       1.28062      .   S
    O50    C20       1.26325      .   S
    O50    Cd11      2.27353      .   S
    O71    C32       1.26249      .   S
    O71    Cd5       2.27623      .   S
    C32    O70       1.28944      .   S
    C20    O49       1.28823      .   S
    Cd11   O42       2.29173      .   S
    Cd11   O39       2.27537      .   S
    Cd11   O81       2.25979      .   S
    Cd5    O63       2.28993      .   S
    Cd5    O60       2.27596      .   S
    Cd5    O57       2.26002      .   S
    O42    C14       1.28785  1_565   S
    O63    C29       1.29251      .   S
    O45    Cd7       2.19928      .   S
    O66    Cd1       2.20103      .   S
    O60    C28       1.25745      .   S
    O39    C13       1.25687  1_565   S
    C13    O40       1.29029      .   S
    C28    O61       1.28988      .   S
    C14    O41       1.27795      .   S
    C29    O62       1.26626      .   S
    O70    Cd1       2.26961      .   S
    O49    Cd7       2.26686      .   S
    O40    Cd0       2.26365      .   S
    O61    Cd6       2.26578      .   S
    O41    Cd0       2.30472      .   S
    O62    Cd6       2.31436      .   S
    Cd7    O77       2.20745      .   S
    Cd1    O56       2.20399      .   S
    Cd0    O80       2.40919  1_545   S
    Cd0    O55       2.23215      .   S
    Cd6    O19       2.41627      .   S
    Cd6    O76       2.22521      .   S
    O81    C38       1.30507      .   S
    O57    C27       1.30504      .   S
    O80    C38       1.25198      .   S
    O19    C27       1.25233      .   S
    O56    C24       1.27433      .   S
    O77    C36       1.27348      .   S
    O55    C24       1.27257      .   S
    O76    C36       1.27245      .   S
    O18    C25       1.26616      .   S
    O18    Cd2       2.27574      .   S
    O79    C37       1.26617      .   S
    O79    Cd8       2.27934      .   S
    C25    O17       1.28040      .   S
    C37    O78       1.28051      .   S
    O83    C12       1.26261      .   S
    O83    Cd8       2.27804      .   S
    O59    C26       1.26246      .   S
    O59    Cd2       2.27723      .   S
    C12    O82       1.28835      .   S
    C26    O58       1.28891      .   S
    Cd8    O75       2.29088      .   S
    Cd8    O72       2.27526      .   S
    Cd8    O48       2.25767      .   S
    Cd2    O54       2.28892      .   S
    Cd2    O51       2.27225      .   S
    Cd2    O69       2.25841      .   S
    O75    C35       1.29166      .   S
    O54    C23       1.29282      .   S
    O78    Cd4       2.19983      .   S
    O17    Cd10      2.20017      .   S
    O51    C22       1.25738  1_545   S
    O72    C34       1.25742      .   S
    C34    O73       1.29024      .   S
    C22    O52       1.28993      .   S
    C35    O74       1.26843      .   S
    C23    O53       1.26587  1_545   S
    O82    Cd4       2.26665      .   S
    O58    Cd10      2.26653      .   S
    O73    Cd9       2.26602      .   S
    O52    Cd3       2.26643      .   S
    O74    Cd9       2.30747      .   S
    O53    Cd3       2.31571      .   S
    Cd4    O44       2.20306      .   S
    Cd10   O65       2.20291      .   S
    Cd9    O47       2.41517      .   S
    Cd9    O64       2.22854      .   S
    Cd3    O68       2.41431  1_565   S
    Cd3    O43       2.22462      .   S
    O48    C21       1.30551      .   S
    O69    C33       1.30541      .   S
    O47    C21       1.25192      .   S
    O68    C33       1.25203      .   S
    O65    C30       1.27428      .   S
    O44    C15       1.27483      .   S
    O64    C30       1.27284      .   S
    O43    C15       1.27293      .   S
    O40    Cd1       2.43472      .   S
    O42    Cd0       2.44270  1_565   S
    O48    Cd4       2.41996      .   S
    O52    Cd4       2.43490      .   S
    O54    Cd3       2.41433  1_545   S
    O57    Cd1       2.42505      .   S
    O61    Cd7       2.43338      .   S
    O63    Cd6       2.41947      .   S
    O69    Cd10      2.41810      .   S
    O73    Cd10      2.43940      .   S
    O75    Cd9       2.43442      .   S
    O81    Cd7       2.41781      .   S
    C12    Og84      0.50842      .   S
    C13    Og85      0.50518      .   S
    C14    Og86      0.50069  1_545   S
    C15    Og87      0.50774      .   S
    C16    Og88      0.50924      .   S
    C20    Og89      0.50815      .   S
    C21    Og90      0.50664      .   S
    C22    Og91      0.50569      .   S
    C23    Og92      0.50270      .   S
    C24    Og93      0.50768      .   S
    C25    Og94      0.50937      .   S
    C26    Og95      0.50812      .   S
    C27    Og96      0.50629      .   S
    C28    Og97      0.50538      .   S
    C29    Og98      0.50284  1_655   S
    C30    Og99      0.50770      .   S
    C31    Og100     0.50970  1_655   S
    C32    Og101     0.50831      .   S
    C33    Og102     0.50651      .   S
    C34    Og103     0.50562      .   S
    C35    Og104     0.50253  1_455   S
    C36    Og105     0.50792      .   S
    C37    Og106     0.50941  1_455   S
    C38    Og107     0.50690      .   S
