# CIF file generated by openbabel 2.4.90, see http://openbabel.sf.net
data_I
_chemical_name_common ''
_cell_length_a 13.687
_cell_length_b 17.852
_cell_length_c 21.787
_cell_angle_alpha 89.91
_cell_angle_beta 89.977
_cell_angle_gamma 89.998
_space_group_name_H-M_alt 'P 1'
_space_group_name_Hall 'P 1'
loop_
    _symmetry_equiv_pos_as_xyz
    x,y,z
loop_
    _atom_site_label
    _atom_site_type_symbol
    _atom_site_fract_x
    _atom_site_fract_y
    _atom_site_fract_z
    _atom_site_occupancy
    Zr0     Zr   0.69727   0.87356   0.14849   1.000
    Zr1     Zr   0.67597   0.05892   0.23460   1.000
    Zr2     Zr   0.85185   0.20114   0.21502   1.000
    Zr3     Zr   0.30271   0.12855   0.64930   1.000
    Zr4     Zr   0.32303   0.94338   0.73579   1.000
    Zr5     Zr   0.14768   0.80182   0.71464   1.000
    Zr6     Zr   0.80282   0.37349   0.14920   1.000
    Zr7     Zr   0.82343   0.55883   0.23526   1.000
    Zr8     Zr   0.64785   0.70091   0.21490   1.000
    Zr9     Zr   0.19685   0.62877   0.64912   1.000
    Zr10    Zr   0.17653   0.44341   0.73548   1.000
    Zr11    Zr   0.35211   0.30146   0.71472   1.000
    N12     N    0.32787   0.19827   0.02048   1.000
    N13     N    0.80132   0.03636   0.56081   1.000
    N14     N    0.82801   0.30380   0.52122   1.000
    N15     N    0.69825   0.53648   0.56073   1.000
    N16     N    0.30240   0.46586   0.06075   1.000
    N17     N    0.67175   0.80442   0.52077   1.000
    N18     N    0.17195   0.69802   0.02072   1.000
    N19     N    0.19630   0.96509   0.06073   1.000
    C20     C    0.79092   0.14398   0.32459   1.000
    O21     O    0.74247   0.11717   0.30098   1.000
    O22     O    0.79538   0.11678   0.39669   1.000
    O23     O    0.82525   0.16390   0.29397   1.000
    C24     C    0.94991   0.51200   0.17717   1.000
    O25     O    0.89750   0.47040   0.16384   1.000
    O26     O    0.05517   0.49365   0.14205   1.000
    C27     C    0.53387   0.76714   0.12180   1.000
    O28     O    0.42592   0.74918   0.08937   1.000
    O29     O    0.58370   0.80658   0.12274   1.000
    O30     O    0.55915   0.73796   0.15320   1.000
    C31     C    0.70902   0.64407   0.32474   1.000
    O32     O    0.75735   0.61725   0.30127   1.000
    O33     O    0.67462   0.66385   0.29403   1.000
    O34     O    0.70445   0.61689   0.39678   1.000
    C35     C    0.82050   0.73667   0.14567   1.000
    O36     O    0.78776   0.78433   0.13927   1.000
    O37     O    0.77321   0.71615   0.17188   1.000
    O38     O    0.92615   0.72117   0.10925   1.000
    C39     C    0.67941   0.23676   0.14556   1.000
    O40     O    0.57375   0.22132   0.10905   1.000
    O41     O    0.72659   0.21626   0.17182   1.000
    O42     O    0.71224   0.28438   0.13939   1.000
    C43     C    0.82903   0.38265   0.27707   1.000
    O44     O    0.82942   0.35543   0.34986   1.000
    O45     O    0.82541   0.44181   0.27057   1.000
    O46     O    0.82443   0.36757   0.23702   1.000
    O47     O    0.83669   0.32448   0.25348   1.000
    C48     C    0.65802   0.51054   0.17243   1.000
    O49     O    0.70275   0.53701   0.19370   1.000
    O50     O    0.65885   0.57252   0.18861   1.000
    O51     O    0.69737   0.46119   0.16286   1.000
    O52     O    0.55004   0.50176   0.13932   1.000
    C53     C    0.84171   0.01072   0.17241   1.000
    O54     O    0.80247   0.96133   0.16268   1.000
    O55     O    0.79688   0.03717   0.19351   1.000
    O56     O    0.84086   0.07272   0.18861   1.000
    O57     O    0.94944   0.00169   0.13930   1.000
    C58     C    0.96607   0.26753   0.12191   1.000
    O59     O    0.07396   0.24948   0.08936   1.000
    O60     O    0.94074   0.23835   0.15334   1.000
    O61     O    0.91627   0.30684   0.12298   1.000
    C62     C    0.55028   0.01061   0.17597   1.000
    O63     O    0.60263   0.96978   0.16249   1.000
    O64     O    0.44464   0.99240   0.14119   1.000
    C65     C    0.67085   0.88242   0.27586   1.000
    O66     O    0.67439   0.94167   0.26939   1.000
    O67     O    0.67043   0.85549   0.34890   1.000
    O68     O    0.67546   0.86737   0.23601   1.000
    O69     O    0.66310   0.82421   0.25262   1.000
    C70     C    0.45014   0.99046   0.67843   1.000
    O71     O    0.55510   0.00871   0.64301   1.000
    O72     O    0.39768   0.03192   0.66474   1.000
    C73     C    0.17950   0.26639   0.64640   1.000
    O74     O    0.07377   0.28147   0.60991   1.000
    O75     O    0.21231   0.21847   0.64011   1.000
    O76     O    0.22674   0.28681   0.67229   1.000
    C77     C    0.05002   0.49074   0.67731   1.000
    O78     O    0.10228   0.53209   0.66371   1.000
    O79     O    0.94487   0.50895   0.64223   1.000
    C80     C    0.15755   0.99214   0.67214   1.000
    O81     O    0.19705   0.04123   0.66236   1.000
    O82     O    0.04939   0.00074   0.63918   1.000
    O83     O    0.20223   0.96568   0.69389   1.000
    O84     O    0.15839   0.93029   0.68861   1.000
    C85     C    0.20863   0.85815   0.82511   1.000
    O86     O    0.25691   0.88516   0.80184   1.000
    O87     O    0.20344   0.88513   0.89705   1.000
    O88     O    0.17443   0.83833   0.79409   1.000
    C89     C    0.17075   0.62024   0.77637   1.000
    O90     O    0.17530   0.63522   0.73652   1.000
    O91     O    0.16301   0.67848   0.75290   1.000
    O92     O    0.17446   0.56090   0.77004   1.000
    O93     O    0.17036   0.64709   0.84925   1.000
    C94     C    0.32032   0.76646   0.64594   1.000
    O95     O    0.42603   0.78169   0.60945   1.000
    O96     O    0.27299   0.78702   0.67185   1.000
    O97     O    0.28753   0.71852   0.63979   1.000
    C98     C    0.03308   0.73550   0.62207   1.000
    O99     O    0.92525   0.75340   0.58963   1.000
    O100    O    0.08275   0.69575   0.62334   1.000
    O101    O    0.05878   0.76494   0.65308   1.000
    C102    C    0.46672   0.23381   0.62205   1.000
    O103    O    0.57453   0.25205   0.58971   1.000
    O104    O    0.44099   0.26355   0.65313   1.000
    O105    O    0.41703   0.19444   0.62333   1.000
    C106    C    0.32729   0.12013   0.77650   1.000
    O107    O    0.32820   0.14705   0.84929   1.000
    O108    O    0.32355   0.06084   0.77019   1.000
    O109    O    0.32351   0.13505   0.73667   1.000
    O110    O    0.33586   0.17828   0.75303   1.000
    C111    C    0.34207   0.49207   0.67215   1.000
    O112    O    0.45018   0.50073   0.63910   1.000
    O113    O    0.30255   0.54125   0.66237   1.000
    O114    O    0.29741   0.46562   0.69380   1.000
    O115    O    0.34130   0.43013   0.68861   1.000
    C116    C    0.29134   0.35828   0.82505   1.000
    O117    O    0.29625   0.38548   0.89700   1.000
    O118    O    0.32548   0.33829   0.79408   1.000
    O119    O    0.24297   0.38529   0.80171   1.000
    O120    O    0.91518   0.52495   0.19274   1.000
    O121    O    0.08476   0.47767   0.69289   1.000
    O122    O    0.58479   0.02401   0.19167   1.000
    O123    O    0.41525   0.97745   0.69382   1.000
loop_
    _geom_bond_atom_site_label_1
    _geom_bond_atom_site_label_2
    _geom_bond_distance
    _geom_bond_site_symmetry_2
    _ccdc_geom_bond_type
    C20    O21       0.96681      .   S
    Zr1    O21       2.00172      .   S
    C20    O22       1.64472      .   S
    N13    O22       3.85178      .   S
    C20    O23       0.88953      .   S
    Zr2    O23       1.87853      .   S
    C24    O25       1.07293      .   S
    Zr6    O25       2.18558      .   S
    C24    O26       1.66369  1_655   S
    N16    O26       3.85123      .   S
    C27    O28       1.66925      .   S
    N18    O28       3.89403      .   S
    C27    O29       0.98055      .   S
    Zr0    O29       2.04058      .   S
    C27    O30       0.92637      .   S
    Zr8    O30       1.92798      .   S
    C31    O32       0.96377      .   S
    Zr7    O32       1.99441      .   S
    C31    O33       0.89068      .   S
    Zr8    O33       1.88179      .   S
    C31    O34       1.64339      .   S
    N15    O34       3.84840      .   S
    C35    O36       0.97143      .   S
    Zr0    O36       2.02796      .   S
    C35    O37       0.93719      .   S
    Zr8    O37       1.97348      .   S
    C35    O38       1.67238      .   S
    N18    O38       3.89956  1_455   S
    C39    O40       1.67374      .   S
    N12    O40       3.90215      .   S
    C39    O41       0.93704      .   S
    Zr2    O41       1.97442      .   S
    C39    O42       0.97081      .   S
    Zr6    O42       2.02839      .   S
    C43    O44       1.65774      .   S
    N14    O44       3.84436      .   S
    C43    O45       1.06647      .   S
    Zr7    O45       2.22531      .   S
    C43    O46       0.91579      .   S
    Zr6    O46       1.93893      .   S
    C43    O47       1.16416      .   S
    Zr2    O47       2.36625      .   S
    C48    O49       0.90201      .   S
    Zr7    O49       1.92415      .   S
    C48    O50       1.16196      .   S
    Zr8    O50       2.36797      .   S
    C48    O51       1.05372      .   S
    Zr6    O51       2.15024      .   S
    C48    O52       1.65243      .   S
    N16    O52       3.85200      .   S
    C53    O54       1.05417  1_545   S
    Zr0    O54       2.15076      .   S
    C53    O55       0.90065      .   S
    Zr1    O55       1.92127      .   S
    C53    O56       1.16246      .   S
    Zr2    O56       2.36920      .   S
    C53    O57       1.64921      .   S
    N19    O57       3.84341  1_465   S
    C58    O59       1.66951  1_655   S
    N12    O59       3.89428      .   S
    C58    O60       0.92691      .   S
    Zr2    O60       1.92963      .   S
    C58    O61       0.97852      .   S
    Zr6    O61       2.03822      .   S
    C62    O63       1.06371  1_545   S
    Zr0    O63       2.17319      .   S
    C62    O64       1.66497  1_545   S
    N19    O64       3.85632      .   S
    C65    O66       1.06800      .   S
    Zr1    O66       2.22504  1_545   S
    C65    O67       1.66162      .   S
    N17    O67       3.85261      .   S
    C65    O68       0.91136      .   S
    Zr0    O68       1.93300      .   S
    C65    O69       1.16164      .   S
    Zr8    O69       2.36011      .   S
    C70    O71       1.66245  1_565   S
    N13    O71       3.84715      .   S
    C70    O72       1.07324  1_565   S
    Zr3    O72       2.18560      .   S
    C73    O74       1.67301      .   S
    N14    O74       3.90000  1_655   S
    C73    O75       0.97601      .   S
    Zr3    O75       2.03633      .   S
    C73    O76       0.93273      .   S
    Zr11   O76       1.96707      .   S
    C77    O78       1.06921      .   S
    Zr9    O78       2.18032      .   S
    C77    O79       1.66170  1_455   S
    N15    O79       3.84587      .   S
    C80    O81       1.05121  1_565   S
    Zr3    O81       2.14497      .   S
    C80    O82       1.65261  1_565   S
    N13    O82       3.85351  1_655   S
    C80    O83       0.90621      .   S
    Zr4    O83       1.93021      .   S
    C80    O84       1.16043      .   S
    Zr5    O84       2.36619      .   S
    C85    O86       0.96178      .   S
    Zr4    O86       1.99111      .   S
    C85    O87       1.64186      .   S
    N19    O87       3.84453  1_554   S
    C85    O88       0.89561      .   S
    Zr5    O88       1.88658      .   S
    C89    O90       0.91026      .   S
    Zr9    O90       1.93028      .   S
    C89    O91       1.16283      .   S
    Zr5    O91       2.36251      .   S
    C89    O92       1.06971      .   S
    Zr10   O92       2.22978      .   S
    C89    O93       1.65928      .   S
    N18    O93       3.84634  1_554   S
    C94    O95       1.67273      .   S
    N17    O95       3.89874      .   S
    C94    O96       0.93451      .   S
    Zr5    O96       1.96971      .   S
    C94    O97       0.97594      .   S
    Zr9    O97       2.03655      .   S
    C98    O99       1.66729  1_455   S
    N17    O99       3.88827      .   S
    C98    O100      0.98306      .   S
    Zr9    O100      2.04520      .   S
    C98    O101      0.92613      .   S
    Zr5    O101      1.92799      .   S
    C102   O103      1.66671      .   S
    N14    O103      3.88696      .   S
    C102   O104      0.93016      .   S
    Zr11   O104      1.93394      .   S
    C102   O105      0.97842      .   S
    Zr3    O105      2.03700      .   S
    C106   O107      1.65786      .   S
    N12    O107      3.84155  1_554   S
    C106   O108      1.06873      .   S
    Zr4    O108      2.22802  1_565   S
    C106   O109      0.90879      .   S
    Zr3    O109      1.92856      .   S
    C106   O110      1.16242      .   S
    Zr11   O110      2.36122      .   S
    C111   O112      1.65240      .   S
    N15    O112      3.85262      .   S
    C111   O113      1.05279      .   S
    Zr9    O113      2.14846      .   S
    C111   O114      0.90470      .   S
    Zr10   O114      1.92783      .   S
    C111   O115      1.16202      .   S
    Zr11   O115      2.37021      .   S
    C116   O117      1.64314      .   S
    N16    O117      3.84854  1_554   S
    C116   O118      0.89530      .   S
    Zr11   O118      1.88610      .   S
    C116   O119      0.96366      .   S
    Zr10   O119      1.99545      .   S
    Zr7    O120      1.67390      .   S
    C24    O120      0.62819      .   S
    C77    O121      0.62904      .   S
    Zr10   O121      1.67682      .   S
    C62    O122      0.63074      .   S
    Zr1    O122      1.68023      .   S
    Zr4    O123      1.67230      .   S
    C70    O123      0.62771      .   S
