# CIF file generated by openbabel 2.4.90, see http://openbabel.sf.net
data_I
_chemical_name_common ''
_cell_length_a 13.687
_cell_length_b 17.852
_cell_length_c 21.787
_cell_angle_alpha 89.91
_cell_angle_beta 89.977
_cell_angle_gamma 89.998
_space_group_name_H-M_alt 'P 1'
_space_group_name_Hall 'P 1'
loop_
    _symmetry_equiv_pos_as_xyz
    x,y,z
loop_
    _atom_site_label
    _atom_site_type_symbol
    _atom_site_fract_x
    _atom_site_fract_y
    _atom_site_fract_z
    _atom_site_occupancy
    C0      C    0.69727   0.87356   0.14849   1.000
    C1      C    0.67597   0.05892   0.23460   1.000
    C2      C    0.85185   0.20114   0.21502   1.000
    C3      C    0.30271   0.12855   0.64930   1.000
    C4      C    0.32303   0.94338   0.73579   1.000
    C5      C    0.14768   0.80182   0.71464   1.000
    C6      C    0.80282   0.37349   0.14920   1.000
    C7      C    0.82343   0.55883   0.23526   1.000
    C8      C    0.64785   0.70091   0.21490   1.000
    C9      C    0.19685   0.62877   0.64912   1.000
    C10     C    0.17653   0.44341   0.73548   1.000
    C11     C    0.35211   0.30146   0.71472   1.000
    C12     C    0.04338   0.92897   0.17374   1.000
    C13     C    0.97632   0.91404   0.10443   1.000
    C14     C    0.00932   0.06627   0.16684   1.000
    C15     C    0.95691   0.05420   0.09322   1.000
    C16     C    0.34269   0.06058   0.15622   1.000
    C17     C    0.40165   0.06453   0.08267   1.000
    C18     C    0.46216   0.93326   0.09720   1.000
    C19     C    0.40158   0.92969   0.17006   1.000
    C20     C    0.26192   0.96834   0.91478   1.000
    C21     C    0.13094   0.97120   0.91558   1.000
    C22     C    0.25770   0.83064   0.93215   1.000
    C23     C    0.12645   0.83235   0.92558   1.000
    C24     C    0.38393   0.64458   0.08443   1.000
    C25     C    0.32715   0.70301   0.14025   1.000
    C26     C    0.43901   0.75805   0.02565   1.000
    C27     C    0.38007   0.81682   0.07901   1.000
    C28     C    0.95407   0.77720   0.03620   1.000
    C29     C    0.01990   0.80079   0.10397   1.000
    C30     C    0.98223   0.67387   0.14902   1.000
    C31     C    0.91686   0.65009   0.08179   1.000
    C32     C    0.09875   0.58334   0.90992   1.000
    C33     C    0.22869   0.58138   0.90827   1.000
    C34     C    0.10322   0.70824   0.85404   1.000
    C35     C    0.23181   0.70616   0.85568   1.000
    C36     C    0.95673   0.07489   0.67169   1.000
    C37     C    0.02310   0.08717   0.60169   1.000
    C38     C    0.98953   0.93717   0.66790   1.000
    C39     C    0.04197   0.94668   0.59400   1.000
    C40     C    0.65766   0.94011   0.65700   1.000
    C41     C    0.59691   0.93710   0.58413   1.000
    C42     C    0.53809   0.06872   0.59979   1.000
    C43     C    0.59970   0.07084   0.67228   1.000
    C44     C    0.73253   0.03474   0.41521   1.000
    C45     C    0.86336   0.02939   0.41474   1.000
    C46     C    0.74078   0.17210   0.43136   1.000
    C47     C    0.87203   0.16836   0.42530   1.000
    C48     C    0.61637   0.35669   0.58561   1.000
    C49     C    0.67337   0.29760   0.64101   1.000
    C50     C    0.56185   0.24390   0.52606   1.000
    C51     C    0.62067   0.18447   0.57912   1.000
    C52     C    0.04701   0.22575   0.53643   1.000
    C53     C    0.98135   0.20080   0.60405   1.000
    C54     C    0.01674   0.32769   0.64967   1.000
    C55     C    0.08212   0.35272   0.58267   1.000
    C56     C    0.90060   0.41880   0.41020   1.000
    C57     C    0.77063   0.42042   0.40888   1.000
    C58     C    0.89633   0.29401   0.35447   1.000
    C59     C    0.76770   0.29610   0.35607   1.000
    C60     C    0.45681   0.42817   0.17282   1.000
    C61     C    0.52347   0.41453   0.10316   1.000
    C62     C    0.49027   0.56579   0.16712   1.000
    C63     C    0.54297   0.55475   0.09348   1.000
    C64     C    0.15770   0.56143   0.15666   1.000
    C65     C    0.09812   0.56529   0.08336   1.000
    C66     C    0.03755   0.43403   0.09832   1.000
    C67     C    0.09854   0.43066   0.17090   1.000
    C68     C    0.23541   0.46775   0.91506   1.000
    C69     C    0.36627   0.47269   0.91510   1.000
    C70     C    0.24332   0.33021   0.93216   1.000
    C71     C    0.37444   0.33381   0.92532   1.000
    C72     C    0.11803   0.14542   0.08722   1.000
    C73     C    0.17487   0.20664   0.14090   1.000
    C74     C    0.06026   0.25592   0.02569   1.000
    C75     C    0.11858   0.31745   0.07716   1.000
    C76     C    0.54763   0.27552   0.03428   1.000
    C77     C    0.48225   0.30182   0.10154   1.000
    C78     C    0.51683   0.17517   0.14869   1.000
    C79     C    0.58297   0.14950   0.08225   1.000
    C80     C    0.39826   0.08206   0.90971   1.000
    C81     C    0.26827   0.08184   0.90853   1.000
    C82     C    0.39592   0.20744   0.85426   1.000
    C83     C    0.26730   0.20645   0.85588   1.000
    C84     C    0.54289   0.57440   0.67205   1.000
    C85     C    0.47667   0.58763   0.60215   1.000
    C86     C    0.50981   0.43669   0.66706   1.000
    C87     C    0.45712   0.44740   0.59330   1.000
    C88     C    0.84209   0.44057   0.65710   1.000
    C89     C    0.90251   0.43701   0.58406   1.000
    C90     C    0.96130   0.56890   0.59904   1.000
    C91     C    0.90044   0.57117   0.67183   1.000
    C92     C    0.76643   0.53448   0.41500   1.000
    C93     C    0.63554   0.52988   0.41485   1.000
    C94     C    0.75944   0.67189   0.43150   1.000
    C95     C    0.62812   0.66882   0.42565   1.000
    C96     C    0.88341   0.85805   0.58477   1.000
    C97     C    0.82635   0.79965   0.64066   1.000
    C98     C    0.93782   0.74448   0.52609   1.000
    C99     C    0.87902   0.68578   0.57973   1.000
    C100    C    0.45325   0.72600   0.53603   1.000
    C101    C    0.51896   0.70121   0.60364   1.000
    C102    C    0.48291   0.82785   0.64930   1.000
    C103    C    0.41771   0.85294   0.58236   1.000
    C104    C    0.59914   0.91892   0.40949   1.000
    C105    C    0.72912   0.92074   0.40801   1.000
    C106    C    0.60366   0.79416   0.35370   1.000
    C107    C    0.73226   0.79635   0.35523   1.000
    C108    C    0.19415   0.99072   0.12381   1.000
    C109    C    0.28516   0.97572   0.02610   1.000
    C110    C    0.10915   0.94514   0.03083   1.000
    C111    C    0.00000   0.95325   0.12935   1.000
    C112    C    0.96829   0.02695   0.13811   1.000
    C113    C    0.86779   0.01349   0.16520   1.000
    C114    C    0.36653   0.02788   0.11651   1.000
    C115    C    0.43792   0.96655   0.13650   1.000
    C116    C    0.52550   0.00000   0.16765   1.000
    C117    C    0.19586   0.94176   0.93262   1.000
    C118    C    0.19462   0.85990   0.91202   1.000
    C119    C    0.20578   0.85831   0.84247   1.000
    C120    C    0.25834   0.66082   0.99920   1.000
    C121    C    0.08097   0.68585   0.99195   1.000
    C122    C    0.17506   0.73396   0.08066   1.000
    C123    C    0.34850   0.69871   0.09200   1.000
    C124    C    0.41724   0.76253   0.07411   1.000
    C125    C    0.51079   0.76629   0.11220   1.000
    C126    C    0.99708   0.75478   0.07432   1.000
    C127    C    0.93851   0.69733   0.11133   1.000
    C128    C    0.84475   0.72929   0.13853   1.000
    C129    C    0.16481   0.61782   0.90923   1.000
    C130    C    0.16637   0.67034   0.85407   1.000
    C131    C    0.16961   0.62939   0.79299   1.000
    C132    C    0.80526   0.01119   0.62361   1.000
    C133    C    0.71239   0.02556   0.52663   1.000
    C134    C    0.88827   0.05699   0.52991   1.000
    C135    C    0.97664   0.04902   0.62783   1.000
    C136    C    0.03080   0.97543   0.63826   1.000
    C137    C    0.13148   0.98925   0.66504   1.000
    C138    C    0.63303   0.97329   0.61776   1.000
    C139    C    0.56254   0.03469   0.63867   1.000
    C140    C    0.47505   0.00041   0.67007   1.000
    C141    C    0.79983   0.06006   0.43235   1.000
    C142    C    0.80334   0.14186   0.41159   1.000
    C143    C    0.79339   0.14368   0.34198   1.000
    C144    C    0.74177   0.34122   0.50014   1.000
    C145    C    0.91886   0.31522   0.49186   1.000
    C146    C    0.82556   0.26807   0.58142   1.000
    C147    C    0.65196   0.30253   0.59281   1.000
    C148    C    0.58349   0.23881   0.57451   1.000
    C149    C    0.48982   0.23472   0.61255   1.000
    C150    C    0.00000   0.24734   0.57463   1.000
    C151    C    0.06105   0.30498   0.61197   1.000
    C152    C    0.15514   0.27363   0.63922   1.000
    C153    C    0.83468   0.38415   0.40972   1.000
    C154    C    0.83318   0.33190   0.35450   1.000
    C155    C    0.83008   0.37336   0.29360   1.000
    C156    C    0.30569   0.49093   0.12381   1.000
    C157    C    0.21398   0.47663   0.02638   1.000
    C158    C    0.38978   0.44535   0.03049   1.000
    C159    C    0.47705   0.45325   0.12867   1.000
    C160    C    0.53149   0.52688   0.13811   1.000
    C161    C    0.63195   0.51333   0.16524   1.000
    C162    C    0.13346   0.52867   0.11709   1.000
    C163    C    0.06210   0.46749   0.13744   1.000
    C164    C    0.97478   0.50203   0.16878   1.000
    C165    C    0.30240   0.44223   0.93253   1.000
    C166    C    0.30559   0.36042   0.91190   1.000
    C167    C    0.29422   0.35855   0.84238   1.000
    C168    C    0.24141   0.16037   0.00000   1.000
    C169    C    0.41854   0.18583   0.99100   1.000
    C170    C    0.32575   0.23566   0.07960   1.000
    C171    C    0.15267   0.20018   0.09297   1.000
    C172    C    0.08249   0.26256   0.07390   1.000
    C173    C    0.98915   0.26663   0.11234   1.000
    C174    C    0.50413   0.25469   0.07280   1.000
    C175    C    0.56146   0.19756   0.11094   1.000
    C176    C    0.65518   0.22939   0.13830   1.000
    C177    C    0.33297   0.11742   0.90930   1.000
    C178    C    0.33224   0.17008   0.85423   1.000
    C179    C    0.32850   0.12925   0.79313   1.000
    C180    C    0.69437   0.51130   0.62364   1.000
    C181    C    0.78706   0.52559   0.52655   1.000
    C182    C    0.61125   0.55708   0.53001   1.000
    C183    C    0.52298   0.54908   0.62799   1.000
    C184    C    0.46858   0.47544   0.63783   1.000
    C185    C    0.36809   0.48920   0.66495   1.000
    C186    C    0.86661   0.47346   0.61760   1.000
    C187    C    0.93727   0.53496   0.63810   1.000
    C188    C    0.02513   0.50069   0.66900   1.000
    C189    C    0.69945   0.56014   0.43237   1.000
    C190    C    0.69658   0.64204   0.41175   1.000
    C191    C    0.70650   0.64383   0.34210   1.000
    C192    C    0.75806   0.84196   0.49958   1.000
    C193    C    0.58112   0.81560   0.49137   1.000
    C194    C    0.67442   0.76893   0.58100   1.000
    C195    C    0.84780   0.80398   0.59242   1.000
    C196    C    0.91624   0.74003   0.57460   1.000
    C197    C    0.00996   0.73631   0.61259   1.000
    C198    C    0.49657   0.74769   0.57423   1.000
    C199    C    0.43880   0.80515   0.61150   1.000
    C200    C    0.34468   0.77370   0.63877   1.000
    C201    C    0.66517   0.88437   0.40890   1.000
    C202    C    0.66675   0.83212   0.35368   1.000
    C203    C    0.66979   0.87324   0.29253   1.000
    C204    C    0.11270   0.96250   0.09333   1.000
    C205    C    0.27847   0.99692   0.08771   1.000
    C206    C    0.19794   0.95143   0.99961   1.000
    C207    C    0.25723   0.69844   0.05561   1.000
    C208    C    0.08782   0.72265   0.04858   1.000
    C209    C    0.16919   0.65871   0.96814   1.000
    C210    C    0.88627   0.03911   0.59239   1.000
    C211    C    0.72046   0.00430   0.58811   1.000
    C212    C    0.79894   0.05032   0.49937   1.000
    C213    C    0.74316   0.30331   0.55638   1.000
    C214    C    0.91254   0.27904   0.54888   1.000
    C215    C    0.83062   0.34307   0.46862   1.000
    C216    C    0.38696   0.46296   0.09295   1.000
    C217    C    0.22117   0.49753   0.08794   1.000
    C218    C    0.30084   0.45195   0.99950   1.000
    C219    C    0.24333   0.19928   0.05591   1.000
    C220    C    0.41282   0.22287   0.04762   1.000
    C221    C    0.32983   0.15833   0.96821   1.000
    C222    C    0.61336   0.53933   0.59251   1.000
    C223    C    0.77910   0.50438   0.58805   1.000
    C224    C    0.70047   0.55028   0.49937   1.000
    C225    C    0.75666   0.80435   0.55596   1.000
    C226    C    0.58748   0.77961   0.54846   1.000
    C227    C    0.66934   0.84336   0.46790   1.000
    C228    C    0.19199   0.00000   0.17787   1.000
    C229    C    0.36217   0.97980   0.99767   1.000
    C230    C    0.03412   0.92495   0.00519   1.000
    C231    C    0.82919   0.95034   0.15741   1.000
    C232    C    0.82815   0.06832   0.19461   1.000
    C233    C    0.51262   0.04748   0.21074   1.000
    C234    C    0.61270   0.98435   0.14952   1.000
    C235    C    0.28735   0.88095   0.82136   1.000
    C236    C    0.13278   0.83520   0.81150   1.000
    C237    C    0.33288   0.63154   0.97916   1.000
    C238    C    0.00332   0.67840   0.96501   1.000
    C239    C    0.17952   0.77121   0.12777   1.000
    C240    C    0.52101   0.71666   0.15430   1.000
    C241    C    0.56980   0.81847   0.09889   1.000
    C242    C    0.17980   0.55971   0.79192   1.000
    C243    C    0.16285   0.67162   0.74420   1.000
    C244    C    0.80398   0.69033   0.18126   1.000
    C245    C    0.81278   0.79041   0.11723   1.000
    C246    C    0.80816   0.99349   0.67780   1.000
    C247    C    0.63482   0.02125   0.49878   1.000
    C248    C    0.96245   0.07799   0.50369   1.000
    C249    C    0.17039   0.05209   0.65586   1.000
    C250    C    0.17078   0.93507   0.69551   1.000
    C251    C    0.48765   0.95277   0.71243   1.000
    C252    C    0.38772   0.01821   0.65280   1.000
    C253    C    0.71207   0.12178   0.32012   1.000
    C254    C    0.86730   0.16649   0.31167   1.000
    C255    C    0.66723   0.37093   0.48039   1.000
    C256    C    0.99601   0.32182   0.46414   1.000
    C257    C    0.82133   0.23126   0.62886   1.000
    C258    C    0.47840   0.28512   0.65368   1.000
    C259    C    0.43195   0.18160   0.59992   1.000
    C260    C    0.82017   0.44310   0.29288   1.000
    C261    C    0.83684   0.33148   0.24474   1.000
    C262    C    0.19584   0.31301   0.68164   1.000
    C263    C    0.18752   0.21254   0.61835   1.000
    C264    C    0.30811   0.50886   0.17795   1.000
    C265    C    0.13689   0.48121   0.99804   1.000
    C266    C    0.46440   0.42474   0.00400   1.000
    C267    C    0.67063   0.45018   0.15736   1.000
    C268    C    0.67150   0.56812   0.19469   1.000
    C269    C    0.98760   0.54985   0.21088   1.000
    C270    C    0.88736   0.48412   0.15184   1.000
    C271    C    0.21268   0.38119   0.82127   1.000
    C272    C    0.36712   0.33512   0.81149   1.000
    C273    C    0.16668   0.13023   0.98135   1.000
    C274    C    0.49548   0.17841   0.96319   1.000
    C275    C    0.32153   0.27469   0.12578   1.000
    C276    C    0.97896   0.21718   0.15450   1.000
    C277    C    0.93011   0.31879   0.09890   1.000
    C278    C    0.31660   0.05973   0.79198   1.000
    C279    C    0.33677   0.17141   0.74439   1.000
    C280    C    0.69569   0.19037   0.18115   1.000
    C281    C    0.68734   0.29052   0.11723   1.000
    C282    C    0.69158   0.49356   0.67785   1.000
    C283    C    0.86458   0.52130   0.49864   1.000
    C284    C    0.53707   0.57807   0.50382   1.000
    C285    C    0.32920   0.55210   0.65606   1.000
    C286    C    0.32894   0.43492   0.69543   1.000
    C287    C    0.01273   0.45346   0.71185   1.000
    C288    C    0.11221   0.51809   0.65109   1.000
    C289    C    0.78796   0.62204   0.32035   1.000
    C290    C    0.63259   0.66636   0.31176   1.000
    C291    C    0.83259   0.87180   0.47993   1.000
    C292    C    0.50387   0.82206   0.46380   1.000
    C293    C    0.67870   0.73224   0.62855   1.000
    C294    C    0.02127   0.78694   0.65354   1.000
    C295    C    0.06800   0.68324   0.60009   1.000
    C296    C    0.67990   0.94293   0.29122   1.000
    C297    C    0.66286   0.83109   0.24384   1.000
    C298    C    0.30364   0.81333   0.68089   1.000
    C299    C    0.31264   0.71237   0.61817   1.000
    O300    O    0.24237   0.17983   0.02796   1.000
    O301    O    0.28562   0.15935   0.98411   1.000
    O302    O    0.20405   0.14530   0.99067   1.000
    O303    O    0.42709   0.43505   0.01724   1.000
    O304    O    0.07164   0.93504   0.01801   1.000
    O305    O    0.42812   0.76029   0.04988   1.000
    O306    O    0.07137   0.25924   0.04979   1.000
    O307    O    0.28182   0.98632   0.05691   1.000
    O308    O    0.32367   0.97776   0.01188   1.000
    O309    O    0.24155   0.96357   0.01286   1.000
    O310    O    0.21758   0.48708   0.05716   1.000
    O311    O    0.17544   0.47892   0.01221   1.000
    O312    O    0.25741   0.46429   0.01294   1.000
    O313    O    0.38837   0.45415   0.06172   1.000
    O314    O    0.34531   0.44865   0.01500   1.000
    O315    O    0.11092   0.95382   0.06208   1.000
    O316    O    0.15354   0.94828   0.01522   1.000
    O317    O    0.52588   0.26511   0.05354   1.000
    O318    O    0.97557   0.76599   0.05526   1.000
    O319    O    0.45848   0.23878   0.06021   1.000
    O320    O    0.36929   0.22926   0.06361   1.000
    O321    O    0.41568   0.20435   0.01931   1.000
    O322    O    0.04245   0.73872   0.06145   1.000
    O323    O    0.13144   0.72831   0.06462   1.000
    O324    O    0.08439   0.70425   0.02027   1.000
    O325    O    0.21615   0.71620   0.06814   1.000
    O326    O    0.30287   0.69857   0.07381   1.000
    O327    O    0.25779   0.67963   0.02741   1.000
    O328    O    0.28454   0.21747   0.06776   1.000
    O329    O    0.19800   0.19973   0.07444   1.000
    O330    O    0.49319   0.27826   0.08717   1.000
    O331    O    0.53280   0.22613   0.09187   1.000
    O332    O    0.10053   0.29000   0.07553   1.000
    O333    O    0.11758   0.23137   0.08344   1.000
    O334    O    0.03582   0.26459   0.09312   1.000
    O335    O    0.39865   0.78967   0.07656   1.000
    O336    O    0.38287   0.73062   0.08306   1.000
    O337    O    0.46401   0.76441   0.09316   1.000
    O338    O    0.00849   0.77779   0.08915   1.000
    O339    O    0.96779   0.72606   0.09283   1.000
    O340    O    0.32364   0.25518   0.10269   1.000
    O341    O    0.17729   0.75259   0.10422   1.000
    O342    O    0.92769   0.67371   0.09656   1.000
    O343    O    0.57222   0.17353   0.09660   1.000
    O344    O    0.38409   0.04620   0.09959   1.000
    O345    O    0.11579   0.54698   0.10023   1.000
    O346    O    0.36622   0.67164   0.08822   1.000
    O347    O    0.13535   0.17280   0.09009   1.000
    O348    O    0.32251   0.01240   0.10211   1.000
    O349    O    0.23631   0.99382   0.10576   1.000
    O350    O    0.17732   0.51310   0.10252   1.000
    O351    O    0.26343   0.49423   0.10588   1.000
    O352    O    0.33782   0.70086   0.11613   1.000
    O353    O    0.34632   0.47695   0.10838   1.000
    O354    O    0.43200   0.45811   0.11081   1.000
    O355    O    0.16377   0.20341   0.11694   1.000
    O356    O    0.96260   0.04058   0.11567   1.000
    O357    O    0.15342   0.97661   0.10857   1.000
    O358    O    0.05635   0.95788   0.11134   1.000
    O359    O    0.53723   0.54082   0.11580   1.000
    O360    O    0.45004   0.94991   0.11685   1.000
    O361    O    0.04983   0.45076   0.11788   1.000
    O362    O    0.54030   0.79238   0.10555   1.000
    O363    O    0.63354   0.84602   0.12369   1.000
    O364    O    0.95963   0.29271   0.10562   1.000
    O365    O    0.86646   0.34614   0.12405   1.000
    O366    O    0.50026   0.43389   0.11592   1.000
    O367    O    0.98816   0.93365   0.11689   1.000
    O368    O    0.60832   0.21347   0.12462   1.000
    O369    O    0.53914   0.18637   0.12981   1.000
    O370    O    0.89163   0.71331   0.12493   1.000
    O371    O    0.96037   0.68560   0.13018   1.000
    O372    O    0.51590   0.74147   0.13325   1.000
    O373    O    0.98405   0.24191   0.13342   1.000
    O374    O    0.40223   0.99722   0.12651   1.000
    O375    O    0.35461   0.04423   0.13637   1.000
    O376    O    0.09778   0.49808   0.12727   1.000
    O377    O    0.14558   0.54505   0.13687   1.000
    O378    O    0.82876   0.75985   0.12788   1.000
    O379    O    0.75503   0.83198   0.13286   1.000
    O380    O    0.67126   0.25996   0.12777   1.000
    O381    O    0.74508   0.33200   0.13322   1.000
    O382    O    0.30690   0.49990   0.15088   1.000
    O383    O    0.19307   0.99536   0.15084   1.000
    O384    O    0.50427   0.49007   0.13339   1.000
    O385    O    0.46693   0.44071   0.15075   1.000
    O386    O    0.98414   0.99010   0.13373   1.000
    O387    O    0.02169   0.94111   0.15155   1.000
    O388    O    0.48171   0.98328   0.15208   1.000
    O389    O    0.41975   0.94812   0.15328   1.000
    O390    O    0.01844   0.48476   0.15311   1.000
    O391    O    0.08032   0.44908   0.15417   1.000
    O392    O    0.58172   0.52010   0.15168   1.000
    O393    O    0.51088   0.54634   0.15262   1.000
    O394    O    0.91804   0.02022   0.15166   1.000
    O395    O    0.98880   0.04661   0.15247   1.000
    O396    O    0.67544   0.20988   0.15973   1.000
    O397    O    0.82436   0.70981   0.15990   1.000
    O398    O    0.65499   0.92896   0.14900   1.000
    O399    O    0.76323   0.91195   0.15295   1.000
    O400    O    0.68007   0.85233   0.19617   1.000
    O401    O    0.84509   0.42880   0.15052   1.000
    O402    O    0.73672   0.41183   0.15328   1.000
    O403    O    0.81983   0.35248   0.19697   1.000
    O404    O    0.56910   0.99218   0.15859   1.000
    O405    O    0.93107   0.49308   0.16031   1.000
    O406    O    0.58443   0.70878   0.18460   1.000
    O407    O    0.91540   0.20916   0.18476   1.000
    O408    O    0.65129   0.48175   0.16130   1.000
    O409    O    0.84849   0.98191   0.16131   1.000
    O410    O    0.84797   0.04091   0.17991   1.000
    O411    O    0.65172   0.54072   0.17997   1.000
    O412    O    0.51906   0.02374   0.18920   1.000
    O413    O    0.98119   0.52594   0.18983   1.000
    O414    O    0.77377   0.19575   0.19809   1.000
    O415    O    0.72591   0.69562   0.19808   1.000
    O416    O    0.75206   0.06362   0.21461   1.000
    O417    O    0.74747   0.56347   0.21498   1.000
    O418    O    0.59429   0.05320   0.22267   1.000
    O419    O    0.90552   0.55434   0.22307   1.000
    O420    O    0.64022   0.68363   0.26333   1.000
    O421    O    0.85957   0.18381   0.26334   1.000
    O422    O    0.67793   0.00092   0.26291   1.000
    O423    O    0.69402   0.09035   0.27736   1.000
    O424    O    0.82180   0.50096   0.26407   1.000
    O425    O    0.80569   0.59043   0.27781   1.000
    O426    O    0.66632   0.85217   0.26819   1.000
    O427    O    0.83346   0.35242   0.26917   1.000
    O428    O    0.67485   0.90809   0.29188   1.000
    O429    O    0.66827   0.85268   0.32311   1.000
    O430    O    0.82513   0.40823   0.29324   1.000
    O431    O    0.83163   0.35263   0.32405   1.000
    O432    O    0.83034   0.15509   0.32683   1.000
    O433    O    0.66954   0.65509   0.32693   1.000
    O434    O    0.75273   0.13273   0.33105   1.000
    O435    O    0.74723   0.63293   0.33123   1.000
    O436    O    0.79836   0.14277   0.37679   1.000
    O437    O    0.70154   0.64293   0.37693   1.000
    O438    O    0.63520   0.81314   0.35369   1.000
    O439    O    0.69950   0.81424   0.35446   1.000
    O440    O    0.66596   0.85825   0.38129   1.000
    O441    O    0.86475   0.31296   0.35448   1.000
    O442    O    0.80044   0.31400   0.35529   1.000
    O443    O    0.83393   0.35803   0.38211   1.000
    O444    O    0.69714   0.90256   0.40846   1.000
    O445    O    0.80266   0.40229   0.40930   1.000
    O446    O    0.63215   0.90165   0.40920   1.000
    O447    O    0.66726   0.86387   0.43840   1.000
    O448    O    0.86764   0.40148   0.40996   1.000
    O449    O    0.83265   0.36361   0.43917   1.000
    O450    O    0.83768   0.15511   0.41845   1.000
    O451    O    0.77206   0.15698   0.42148   1.000
    O452    O    0.80158   0.10096   0.42197   1.000
    O453    O    0.66235   0.65543   0.41870   1.000
    O454    O    0.72801   0.65696   0.42163   1.000
    O455    O    0.69802   0.60109   0.42206   1.000
    O456    O    0.83159   0.04472   0.42355   1.000
    O457    O    0.66749   0.54501   0.42361   1.000
    O458    O    0.73294   0.54731   0.42368   1.000
    O459    O    0.76618   0.04740   0.42378   1.000
    O460    O    0.79938   0.05519   0.46586   1.000
    O461    O    0.69996   0.55521   0.46587   1.000
    O462    O    0.54250   0.81883   0.47758   1.000
    O463    O    0.95743   0.31852   0.47800   1.000
    O464    O    0.62523   0.82948   0.47963   1.000
    O465    O    0.71370   0.84266   0.48374   1.000
    O466    O    0.87474   0.32914   0.48024   1.000
    O467    O    0.78619   0.34214   0.48438   1.000
    O468    O    0.79533   0.85688   0.48976   1.000
    O469    O    0.70450   0.35607   0.49027   1.000
    O470    O    0.58430   0.79761   0.51992   1.000
    O471    O    0.91570   0.29713   0.52037   1.000
    O472    O    0.82582   0.52345   0.51260   1.000
    O473    O    0.67361   0.02341   0.51271   1.000
    O474    O    0.75567   0.03794   0.51300   1.000
    O475    O    0.84360   0.05366   0.51464   1.000
    O476    O    0.74377   0.53794   0.51296   1.000
    O477    O    0.65586   0.55368   0.51469   1.000
    O478    O    0.75736   0.82316   0.52777   1.000
    O479    O    0.74247   0.32226   0.52826   1.000
    O480    O    0.92536   0.06749   0.51680   1.000
    O481    O    0.57416   0.56757   0.51692   1.000
    O482    O    0.57267   0.24136   0.55029   1.000
    O483    O    0.92703   0.74226   0.55035   1.000
    O484    O    0.78308   0.51499   0.55730   1.000
    O485    O    0.71642   0.01493   0.55737   1.000
    O486    O    0.88727   0.04805   0.56115   1.000
    O487    O    0.61230   0.54820   0.56126   1.000
    O488    O    0.47491   0.73684   0.55513   1.000
    O489    O    0.02350   0.23654   0.55553   1.000
    O490    O    0.54203   0.76365   0.56134   1.000
    O491    O    0.63095   0.77427   0.56473   1.000
    O492    O    0.95627   0.26319   0.56176   1.000
    O493    O    0.86905   0.27356   0.56515   1.000
    O494    O    0.71554   0.78664   0.56848   1.000
    O495    O    0.80223   0.80417   0.57419   1.000
    O496    O    0.78436   0.28569   0.56890   1.000
    O497    O    0.69756   0.30292   0.57459   1.000
    O498    O    0.50776   0.72445   0.58894   1.000
    O499    O    0.46769   0.77642   0.59286   1.000
    O500    O    0.60208   0.21164   0.57681   1.000
    O501    O    0.61773   0.27067   0.58366   1.000
    O502    O    0.53665   0.23677   0.59353   1.000
    O503    O    0.89763   0.71290   0.57717   1.000
    O504    O    0.88202   0.77201   0.58351   1.000
    O505    O    0.96310   0.73817   0.59359   1.000
    O506    O    0.99068   0.22407   0.58934   1.000
    O507    O    0.03052   0.27616   0.59330   1.000
    O508    O    0.67656   0.75059   0.60478   1.000
    O509    O    0.82344   0.24967   0.60514   1.000
    O510    O    0.42825   0.82905   0.59693   1.000
    O511    O    0.07158   0.32885   0.59732   1.000
    O512    O    0.88456   0.45524   0.60083   1.000
    O513    O    0.61497   0.95519   0.60095   1.000
    O514    O    0.86561   0.83101   0.58860   1.000
    O515    O    0.63416   0.32961   0.58921   1.000
    O516    O    0.82285   0.48892   0.60282   1.000
    O517    O    0.73674   0.50784   0.60585   1.000
    O518    O    0.67675   0.98879   0.60294   1.000
    O519    O    0.76286   0.00774   0.60586   1.000
    O520    O    0.84576   0.02515   0.60800   1.000
    O521    O    0.93145   0.04406   0.61011   1.000
    O522    O    0.83707   0.80181   0.61654   1.000
    O523    O    0.65387   0.52531   0.60808   1.000
    O524    O    0.56817   0.54420   0.61025   1.000
    O525    O    0.66266   0.30007   0.61691   1.000
    O526    O    0.46285   0.46142   0.61557   1.000
    O527    O    0.03639   0.96106   0.61613   1.000
    O528    O    0.94929   0.55193   0.61857   1.000
    O529    O    0.55031   0.05170   0.61923   1.000
    O530    O    0.46088   0.20816   0.60624   1.000
    O531    O    0.36733   0.15508   0.62461   1.000
    O532    O    0.03898   0.70978   0.60634   1.000
    O533    O    0.13243   0.65601   0.62461   1.000
    O534    O    0.99987   0.06810   0.61476   1.000
    O535    O    0.49983   0.56836   0.61507   1.000
    O536    O    0.39174   0.78943   0.62514   1.000
    O537    O    0.46086   0.81650   0.63040   1.000
    O538    O    0.10809   0.28930   0.62560   1.000
    O539    O    0.03889   0.31633   0.63082   1.000
    O540    O    0.48411   0.25992   0.63312   1.000
    O541    O    0.01561   0.76163   0.63306   1.000
    O542    O    0.90194   0.50421   0.62785   1.000
    O543    O    0.85435   0.45701   0.63735   1.000
    O544    O    0.59779   0.00399   0.62822   1.000
    O545    O    0.64535   0.95670   0.63738   1.000
    O546    O    0.32866   0.74303   0.62847   1.000
    O547    O    0.25474   0.67057   0.63365   1.000
    O548    O    0.17133   0.24308   0.62879   1.000
    O549    O    0.24511   0.17055   0.63382   1.000
    O550    O    0.80671   0.00234   0.65070   1.000
    O551    O    0.69298   0.50243   0.65075   1.000
    O552    O    0.00372   0.01222   0.63305   1.000
    O553    O    0.96668   0.06195   0.64976   1.000
    O554    O    0.49578   0.51226   0.63291   1.000
    O555    O    0.53294   0.56174   0.65002   1.000
    O556    O    0.41833   0.48232   0.65139   1.000
    O557    O    0.48919   0.45607   0.65245   1.000
    O558    O    0.98120   0.51783   0.65355   1.000
    O559    O    0.91886   0.55306   0.65497   1.000
    O560    O    0.08114   0.98234   0.65165   1.000
    O561    O    0.01016   0.95630   0.65308   1.000
    O562    O    0.51880   0.01755   0.65437   1.000
    O563    O    0.58112   0.05276   0.65548   1.000
    O564    O    0.32416   0.79351   0.65983   1.000
    O565    O    0.17549   0.29332   0.66043   1.000
    O566    O    0.15453   0.57343   0.65011   1.000
    O567    O    0.26302   0.59043   0.65259   1.000
    O568    O    0.17985   0.65019   0.69666   1.000
    O569    O    0.34521   0.07338   0.65105   1.000
    O570    O    0.23655   0.09032   0.65258   1.000
    O571    O    0.31974   0.14998   0.69684   1.000
    O572    O    0.06867   0.50939   0.66005   1.000
    O573    O    0.43139   0.00931   0.66144   1.000
    O574    O    0.08448   0.79438   0.68409   1.000
    O575    O    0.41525   0.29329   0.68420   1.000
    O576    O    0.15093   0.02067   0.66045   1.000
    O577    O    0.34864   0.52065   0.66051   1.000
    O578    O    0.34851   0.46206   0.68019   1.000
    O579    O    0.15113   0.96216   0.68027   1.000
    O580    O    0.01893   0.47707   0.69043   1.000
    O581    O    0.48135   0.97659   0.69125   1.000
    O582    O    0.22566   0.80758   0.69777   1.000
    O583    O    0.27397   0.30723   0.69818   1.000
    O584    O    0.25274   0.43916   0.71546   1.000
    O585    O    0.24691   0.93922   0.71565   1.000
    O586    O    0.09463   0.44843   0.72367   1.000
    O587    O    0.40534   0.94807   0.72411   1.000
    O588    O    0.14023   0.81851   0.76307   1.000
    O589    O    0.35961   0.31829   0.76311   1.000
    O590    O    0.17816   0.50156   0.76370   1.000
    O591    O    0.19461   0.41230   0.77838   1.000
    O592    O    0.31982   0.00156   0.76389   1.000
    O593    O    0.30519   0.91217   0.77858   1.000
    O594    O    0.16623   0.65050   0.76860   1.000
    O595    O    0.33263   0.15033   0.76876   1.000
    O596    O    0.17470   0.59455   0.79246   1.000
    O597    O    0.32255   0.09449   0.79256   1.000
    O598    O    0.16799   0.64986   0.82353   1.000
    O599    O    0.33037   0.14967   0.82368   1.000
    O600    O    0.33067   0.34683   0.82693   1.000
    O601    O    0.16928   0.84675   0.82698   1.000
    O602    O    0.25345   0.36987   0.83182   1.000
    O603    O    0.24656   0.86963   0.83192   1.000
    O604    O    0.29990   0.35948   0.87714   1.000
    O605    O    0.20020   0.85911   0.87725   1.000
    O606    O    0.13479   0.68929   0.85406   1.000
    O607    O    0.19909   0.68825   0.85488   1.000
    O608    O    0.16559   0.64408   0.88165   1.000
    O609    O    0.36408   0.18876   0.85425   1.000
    O610    O    0.29977   0.18826   0.85506   1.000
    O611    O    0.33261   0.14375   0.88177   1.000
    O612    O    0.19675   0.59960   0.90875   1.000
    O613    O    0.30062   0.09963   0.90891   1.000
    O614    O    0.13178   0.60058   0.90958   1.000
    O615    O    0.16700   0.63826   0.93869   1.000
    O616    O    0.36562   0.09974   0.90951   1.000
    O617    O    0.33140   0.13788   0.93876   1.000
    O618    O    0.34001   0.34711   0.91861   1.000
    O619    O    0.27446   0.34531   0.92203   1.000
    O620    O    0.30400   0.40132   0.92221   1.000
    O621    O    0.16053   0.84613   0.91880   1.000
    O622    O    0.22616   0.84527   0.92209   1.000
    O623    O    0.19524   0.90083   0.92232   1.000
    O624    O    0.22889   0.95505   0.92370   1.000
    O625    O    0.26891   0.45499   0.92380   1.000
    O626    O    0.33434   0.45746   0.92381   1.000
    O627    O    0.16340   0.95648   0.92410   1.000
    O628    O    0.30162   0.44709   0.96601   1.000
    O629    O    0.19690   0.94660   0.96612   1.000
    O630    O    0.45701   0.18212   0.97710   1.000
    O631    O    0.04214   0.68213   0.97848   1.000
    O632    O    0.12508   0.67228   0.98005   1.000
    O633    O    0.21377   0.65977   0.98367   1.000
    O634    O    0.37419   0.17208   0.97960   1.000
    O635    O    0.29561   0.64618   0.98918   1.000
    O636    O    0.84000   0.13473   0.20482   1.000
    O637    O    0.64434   0.02164   0.19206   1.000
    O638    O    0.15526   0.73672   0.72942   1.000
    O639    O    0.15923   0.86845   0.70508   1.000
    O640    O    0.35538   0.98080   0.69430   1.000
    O641    O    0.84434   0.26631   0.22988   1.000
    O642    O    0.65967   0.63451   0.20480   1.000
    O643    O    0.85539   0.52148   0.19355   1.000
    O644    O    0.34444   0.23643   0.72956   1.000
    O645    O    0.34052   0.36819   0.70508   1.000
    O646    O    0.14437   0.48075   0.69329   1.000
    O647    O    0.65535   0.76600   0.22937   1.000
loop_
    _geom_bond_atom_site_label_1
    _geom_bond_atom_site_label_2
    _geom_bond_distance
    _geom_bond_site_symmetry_2
    _ccdc_geom_bond_type
    C168   O300      0.70169      .   S
    C219   O300      0.70169      .   S
    C168   O301      0.69732  1_554   S
    C221   O301      0.69732      .   S
    C168   O302      0.61276  1_554   S
    C273   O302      0.61276      .   S
    C266   O303      0.61476      .   S
    C158   O303      0.61476      .   S
    C230   O304      0.61184      .   S
    C110   O304      0.61184      .   S
    C26    O305      0.54998      .   S
    C124   O305      0.54998      .   S
    C74    O306      0.55011      .   S
    C172   O306      0.55011      .   S
    C109   O307      0.69908      .   S
    C205   O307      0.69908      .   S
    C109   O308      0.61223      .   S
    C229   O308      0.61223  1_556   S
    C109   O309      0.69780      .   S
    C206   O309      0.69780  1_556   S
    C157   O310      0.69810      .   S
    C217   O310      0.69810      .   S
    C157   O311      0.61269      .   S
    C265   O311      0.61269  1_556   S
    C157   O312      0.69830      .   S
    C218   O312      0.69830  1_556   S
    C158   O313      0.69883      .   S
    C216   O313      0.69883      .   S
    C158   O314      0.69858      .   S
    C218   O314      0.69858  1_556   S
    C110   O315      0.69893      .   S
    C204   O315      0.69893      .   S
    C110   O316      0.69847      .   S
    C206   O316      0.69847  1_556   S
    C76    O317      0.54672      .   S
    C174   O317      0.54672      .   S
    C28    O318      0.54677      .   S
    C126   O318      0.54677      .   S
    C220   O319      0.73948      .   S
    C174   O319      0.73948      .   S
    C220   O320      0.69957      .   S
    C170   O320      0.69957      .   S
    C220   O321      0.70134      .   S
    C169   O321      0.70134  1_556   S
    C208   O322      0.73935      .   S
    C126   O322      0.73935  1_655   S
    C208   O323      0.69935      .   S
    C122   O323      0.69935      .   S
    C208   O324      0.70094      .   S
    C121   O324      0.70094  1_556   S
    C207   O325      0.70097      .   S
    C122   O325      0.70097      .   S
    C207   O326      0.73989      .   S
    C123   O326      0.73989      .   S
    C207   O327      0.70075      .   S
    C120   O327      0.70075  1_556   S
    C219   O328      0.70047      .   S
    C170   O328      0.70047      .   S
    C219   O329      0.74011      .   S
    C171   O329      0.74011      .   S
    C174   O330      0.54569      .   S
    C77    O330      0.54569      .   S
    C174   O331      0.76554      .   S
    C175   O331      0.76554      .   S
    C172   O332      0.54991      .   S
    C75    O332      0.54991      .   S
    C172   O333      0.76391      .   S
    C171   O333      0.76391      .   S
    C172   O334      0.76455      .   S
    C173   O334      0.76455  1_655   S
    C124   O335      0.54999      .   S
    C27    O335      0.54999      .   S
    C124   O336      0.76377      .   S
    C123   O336      0.76377      .   S
    C124   O337      0.76386      .   S
    C125   O337      0.76386      .   S
    C126   O338      0.54575  1_655   S
    C29    O338      0.54575      .   S
    C126   O339      0.76511      .   S
    C127   O339      0.76511      .   S
    C170   O340      0.61306      .   S
    C275   O340      0.61306      .   S
    C122   O341      0.61267      .   S
    C239   O341      0.61267      .   S
    C31    O342      0.55117      .   S
    C127   O342      0.55117      .   S
    C79    O343      0.55114      .   S
    C175   O343      0.55114      .   S
    C17    O344      0.54792      .   S
    C114   O344      0.54792      .   S
    C65    O345      0.54781      .   S
    C162   O345      0.54781      .   S
    C24    O346      0.54699      .   S
    C123   O346      0.54699      .   S
    C72    O347      0.54694      .   S
    C171   O347      0.54694      .   S
    C205   O348      0.73377  1_565   S
    C114   O348      0.73377      .   S
    C205   O349      0.70035      .   S
    C108   O349      0.70035      .   S
    C217   O350      0.73380      .   S
    C162   O350      0.73380      .   S
    C217   O351      0.70055      .   S
    C156   O351      0.70055      .   S
    C123   O352      0.54689      .   S
    C25    O352      0.54689      .   S
    C216   O353      0.69626      .   S
    C156   O353      0.69626      .   S
    C216   O354      0.73428      .   S
    C159   O354      0.73428      .   S
    C171   O355      0.54698      .   S
    C73    O355      0.54698      .   S
    C15    O356      0.55138      .   S
    C112   O356      0.55138      .   S
    C204   O357      0.69627      .   S
    C108   O357      0.69627      .   S
    C204   O358      0.86907      .   S
    C111   O358      0.86907      .   S
    C63    O359      0.55140      .   S
    C160   O359      0.55140      .   S
    C18    O360      0.54723      .   S
    C115   O360      0.54723      .   S
    C66    O361      0.54726      .   S
    C163   O361      0.54726      .   S
    C241   O362      0.63311      .   S
    C125   O362      0.63311      .   S
    C241   O363      1.13844      .   S
    C0     O363      1.13844      .   S
    C277   O364      0.63345      .   S
    C173   O364      0.63345      .   S
    C277   O365      1.13921      .   S
    C6     O365      1.13921      .   S
    C61    O366      0.54575      .   S
    C159   O366      0.54575      .   S
    C13    O367      0.47198      .   S
    C111   O367      0.47198  1_455   S
    C175   O368      0.76247      .   S
    C176   O368      0.76247      .   S
    C175   O369      0.54951      .   S
    C78    O369      0.54951      .   S
    C127   O370      0.76222      .   S
    C128   O370      0.76222      .   S
    C127   O371      0.54934      .   S
    C30    O371      0.54934      .   S
    C125   O372      0.64093      .   S
    C240   O372      0.64093      .   S
    C173   O373      0.64031      .   S
    C276   O373      0.64031      .   S
    C114   O374      0.76509  1_545   S
    C115   O374      0.76509      .   S
    C114   O375      0.54707      .   S
    C16    O375      0.54707      .   S
    C162   O376      0.76511      .   S
    C163   O376      0.76511      .   S
    C162   O377      0.54709      .   S
    C64    O377      0.54709      .   S
    C245   O378      0.63162      .   S
    C128   O378      0.63162      .   S
    C245   O379      1.13677      .   S
    C0     O379      1.13677      .   S
    C281   O380      0.63124      .   S
    C176   O380      0.63124      .   S
    C281   O381      1.13812      .   S
    C6     O381      1.13812      .   S
    C156   O382      0.61156      .   S
    C264   O382      0.61156      .   S
    C108   O383      0.59501      .   S
    C228   O383      0.59501  1_545   S
    C159   O384      0.76259      .   S
    C160   O384      0.76259      .   S
    C159   O385      0.54796      .   S
    C60    O385      0.54796      .   S
    C111   O386      0.69937  1_455   S
    C112   O386      0.69937  1_545   S
    C111   O387      0.60723      .   S
    C12    O387      0.60723      .   S
    C115   O388      0.75103      .   S
    C116   O388      0.75103  1_545   S
    C115   O389      0.55072      .   S
    C19    O389      0.55072      .   S
    C163   O390      0.75425      .   S
    C164   O390      0.75425  1_655   S
    C163   O391      0.55027      .   S
    C67    O391      0.55027      .   S
    C160   O392      0.75807      .   S
    C161   O392      0.75807      .   S
    C160   O393      0.54805      .   S
    C62    O393      0.54805      .   S
    C112   O394      0.75777      .   S
    C113   O394      0.75777      .   S
    C112   O395      0.54811      .   S
    C14    O395      0.54811  1_455   S
    C176   O396      0.64472      .   S
    C280   O396      0.64472      .   S
    C128   O397      0.64411      .   S
    C244   O397      0.64411      .   S
    C0     O398      1.14586      .   S
    C234   O398      1.14586      .   S
    C0     O399      1.13769      .   S
    C231   O399      1.13769      .   S
    C0     O400      1.12990      .   S
    C297   O400      1.12990      .   S
    C6     O401      1.14496      .   S
    C270   O401      1.14496      .   S
    C6     O402      1.13798      .   S
    C267   O402      1.13798      .   S
    C6     O403      1.13001      .   S
    C261   O403      1.13001      .   S
    C234   O404      0.64393      .   S
    C116   O404      0.64393  1_545   S
    C270   O405      0.64626      .   S
    C164   O405      0.64626      .   S
    C240   O406      1.09964      .   S
    C8     O406      1.09964      .   S
    C276   O407      1.10051      .   S
    C2     O407      1.10051      .   S
    C267   O408      0.62872      .   S
    C161   O408      0.62872      .   S
    C231   O409      0.62844      .   S
    C113   O409      0.62844  1_545   S
    C113   O410      0.64514      .   S
    C232   O410      0.64514      .   S
    C161   O411      0.64494      .   S
    C268   O411      0.64494      .   S
    C116   O412      0.63897      .   S
    C233   O412      0.63897      .   S
    C164   O413      0.63313      .   S
    C269   O413      0.63313      .   S
    C280   O414      1.13481      .   S
    C2     O414      1.13481      .   S
    C244   O415      1.13343      .   S
    C8     O415      1.13343      .   S
    C232   O416      1.13182      .   S
    C1     O416      1.13182      .   S
    C268   O417      1.13289      .   S
    C7     O417      1.13289      .   S
    C233   O418      1.15236      .   S
    C1     O418      1.15236      .   S
    C269   O419      1.15718      .   S
    C7     O419      1.15718      .   S
    C8     O420      1.10372      .   S
    C290   O420      1.10372      .   S
    C2     O421      1.10199      .   S
    C254   O421      1.10199      .   S
    C1     O422      1.20459      .   S
    C296   O422      1.20459  1_565   S
    C1     O423      1.11608      .   S
    C253   O423      1.11608      .   S
    C7     O424      1.20814      .   S
    C260   O424      1.20814      .   S
    C7     O425      1.11261      .   S
    C289   O425      1.11261      .   S
    C297   O426      0.65254      .   S
    C203   O426      0.65254      .   S
    C261   O427      0.65252      .   S
    C155   O427      0.65252      .   S
    C296   O428      0.62599      .   S
    C203   O428      0.62599      .   S
    C203   O429      0.76035      .   S
    C202   O429      0.76035      .   S
    C260   O430      0.62617      .   S
    C155   O430      0.62617      .   S
    C155   O431      0.75944      .   S
    C154   O431      0.75944      .   S
    C254   O432      0.63716      .   S
    C143   O432      0.63716      .   S
    C290   O433      0.63674      .   S
    C191   O433      0.63674      .   S
    C253   O434      0.63629      .   S
    C143   O434      0.63629      .   S
    C289   O435      0.63623      .   S
    C191   O435      0.63623      .   S
    C143   O436      0.76153      .   S
    C142   O436      0.76153      .   S
    C191   O437      0.76187      .   S
    C190   O437      0.76187      .   S
    C202   O438      0.54882      .   S
    C106   O438      0.54882      .   S
    C202   O439      0.55063      .   S
    C107   O439      0.55063      .   S
    C202   O440      0.76183      .   S
    C201   O440      0.76183      .   S
    C58    O441      0.54880      .   S
    C154   O441      0.54880      .   S
    C154   O442      0.55061      .   S
    C59    O442      0.55061      .   S
    C154   O443      0.76179      .   S
    C153   O443      0.76179      .   S
    C105   O444      0.54499      .   S
    C201   O444      0.54499      .   S
    C57    O445      0.54495      .   S
    C153   O445      0.54495      .   S
    C201   O446      0.54709      .   S
    C104   O446      0.54709      .   S
    C201   O447      0.73974      .   S
    C227   O447      0.73974      .   S
    C153   O448      0.54701      .   S
    C56    O448      0.54701      .   S
    C153   O449      0.73904      .   S
    C215   O449      0.73904      .   S
    C142   O450      0.54715      .   S
    C47    O450      0.54715      .   S
    C142   O451      0.55009      .   S
    C46    O451      0.55009      .   S
    C142   O452      0.76445      .   S
    C141   O452      0.76445      .   S
    C190   O453      0.54740      .   S
    C95    O453      0.54740      .   S
    C190   O454      0.55005      .   S
    C94    O454      0.55005      .   S
    C190   O455      0.76467      .   S
    C189   O455      0.76467      .   S
    C45    O456      0.54855      .   S
    C141   O456      0.54855      .   S
    C93    O457      0.54855      .   S
    C189   O457      0.54855      .   S
    C92    O458      0.54628      .   S
    C189   O458      0.54628      .   S
    C44    O459      0.54611      .   S
    C141   O459      0.54611      .   S
    C141   O460      0.73512      .   S
    C212   O460      0.73512      .   S
    C189   O461      0.73505      .   S
    C224   O461      0.73505      .   S
    C292   O462      0.61082      .   S
    C193   O462      0.61082      .   S
    C256   O463      0.61092      .   S
    C145   O463      0.61092      .   S
    C227   O464      0.70067      .   S
    C193   O464      0.70067      .   S
    C227   O465      0.69860      .   S
    C192   O465      0.69860      .   S
    C215   O466      0.70032      .   S
    C145   O466      0.70032      .   S
    C215   O467      0.69832      .   S
    C144   O467      0.69832      .   S
    C291   O468      0.61368      .   S
    C192   O468      0.61368      .   S
    C255   O469      0.61377      .   S
    C144   O469      0.61377      .   S
    C193   O470      0.70093      .   S
    C226   O470      0.70093      .   S
    C145   O471      0.70095      .   S
    C214   O471      0.70095      .   S
    C283   O472      0.61261      .   S
    C181   O472      0.61261      .   S
    C247   O473      0.61275      .   S
    C133   O473      0.61275      .   S
    C212   O474      0.69823      .   S
    C133   O474      0.69823      .   S
    C212   O475      0.69867      .   S
    C134   O475      0.69867      .   S
    C224   O476      0.69804      .   S
    C181   O476      0.69804      .   S
    C224   O477      0.69845      .   S
    C182   O477      0.69845      .   S
    C192   O478      0.69954      .   S
    C225   O478      0.69954      .   S
    C144   O479      0.69950      .   S
    C213   O479      0.69950      .   S
    C248   O480      0.61171      .   S
    C134   O480      0.61171      .   S
    C284   O481      0.61170      .   S
    C182   O481      0.61170      .   S
    C50    O482      0.55005      .   S
    C148   O482      0.55005      .   S
    C98    O483      0.55000      .   S
    C196   O483      0.55000      .   S
    C181   O484      0.69800      .   S
    C223   O484      0.69800      .   S
    C133   O485      0.69802      .   S
    C211   O485      0.69802      .   S
    C134   O486      0.69897      .   S
    C210   O486      0.69897      .   S
    C182   O487      0.69895      .   S
    C222   O487      0.69895      .   S
    C100   O488      0.54672      .   S
    C198   O488      0.54672      .   S
    C52    O489      0.56030      .   S
    C150   O489      0.56030      .   S
    C226   O490      0.73938      .   S
    C198   O490      0.73938      .   S
    C226   O491      0.69911      .   S
    C194   O491      0.69911      .   S
    C214   O492      0.71893      .   S
    C150   O492      0.71893  1_455   S
    C214   O493      0.69951      .   S
    C146   O493      0.69951      .   S
    C225   O494      0.70052      .   S
    C194   O494      0.70052      .   S
    C225   O495      0.73957      .   S
    C195   O495      0.73957      .   S
    C213   O496      0.70081      .   S
    C146   O496      0.70081      .   S
    C213   O497      0.73950      .   S
    C147   O497      0.73950      .   S
    C198   O498      0.54576      .   S
    C101   O498      0.54576      .   S
    C198   O499      0.76468      .   S
    C199   O499      0.76468      .   S
    C148   O500      0.54996      .   S
    C51    O500      0.54996      .   S
    C148   O501      0.76369      .   S
    C147   O501      0.76369      .   S
    C148   O502      0.76405      .   S
    C149   O502      0.76405      .   S
    C196   O503      0.54998      .   S
    C99    O503      0.54998      .   S
    C196   O504      0.76367      .   S
    C195   O504      0.76367      .   S
    C196   O505      0.76411      .   S
    C197   O505      0.76411  1_455   S
    C150   O506      0.53953  1_455   S
    C53    O506      0.53953      .   S
    C150   O507      0.77811      .   S
    C151   O507      0.77811      .   S
    C194   O508      0.61309      .   S
    C293   O508      0.61309      .   S
    C146   O509      0.61264      .   S
    C257   O509      0.61264      .   S
    C103   O510      0.55059      .   S
    C199   O510      0.55059      .   S
    C55    O511      0.55120      .   S
    C151   O511      0.55120      .   S
    C89    O512      0.54775      .   S
    C186   O512      0.54775      .   S
    C41    O513      0.54783      .   S
    C138   O513      0.54783      .   S
    C96    O514      0.54686      .   S
    C195   O514      0.54686      .   S
    C48    O515      0.54689      .   S
    C147   O515      0.54689      .   S
    C223   O516      0.73369      .   S
    C186   O516      0.73369      .   S
    C223   O517      0.70013      .   S
    C180   O517      0.70013      .   S
    C211   O518      0.73378  1_545   S
    C138   O518      0.73378      .   S
    C211   O519      0.70029      .   S
    C132   O519      0.70029      .   S
    C210   O520      0.69620      .   S
    C132   O520      0.69620      .   S
    C210   O521      0.73462      .   S
    C135   O521      0.73462      .   S
    C195   O522      0.54688      .   S
    C97    O522      0.54688      .   S
    C222   O523      0.69630      .   S
    C180   O523      0.69630      .   S
    C222   O524      0.73445      .   S
    C183   O524      0.73445      .   S
    C147   O525      0.54688      .   S
    C49    O525      0.54688      .   S
    C87    O526      0.55183      .   S
    C184   O526      0.55183      .   S
    C39    O527      0.55181      .   S
    C136   O527      0.55181      .   S
    C90    O528      0.54716      .   S
    C187   O528      0.54716      .   S
    C42    O529      0.54713      .   S
    C139   O529      0.54713      .   S
    C259   O530      0.63308      .   S
    C149   O530      0.63308      .   S
    C259   O531      1.13787      .   S
    C3     O531      1.13787      .   S
    C295   O532      0.63308      .   S
    C197   O532      0.63308      .   S
    C295   O533      1.13967      .   S
    C9     O533      1.13967      .   S
    C37    O534      0.54571  1_455   S
    C135   O534      0.54571      .   S
    C85    O535      0.54575      .   S
    C183   O535      0.54575      .   S
    C199   O536      0.76264      .   S
    C200   O536      0.76264      .   S
    C199   O537      0.54964      .   S
    C102   O537      0.54964      .   S
    C151   O538      0.76218      .   S
    C152   O538      0.76218      .   S
    C151   O539      0.54942      .   S
    C54    O539      0.54942      .   S
    C149   O540      0.64020      .   S
    C258   O540      0.64020      .   S
    C197   O541      0.64025      .   S
    C294   O541      0.64025      .   S
    C186   O542      0.76523      .   S
    C187   O542      0.76523      .   S
    C186   O543      0.54687      .   S
    C88    O543      0.54687      .   S
    C138   O544      0.76501  1_565   S
    C139   O544      0.76501      .   S
    C138   O545      0.54636      .   S
    C40    O545      0.54636      .   S
    C299   O546      0.63131      .   S
    C200   O546      0.63131      .   S
    C299   O547      1.13902      .   S
    C9     O547      1.13902      .   S
    C263   O548      0.63123      .   S
    C152   O548      0.63123      .   S
    C263   O549      1.13861      .   S
    C3     O549      1.13861      .   S
    C132   O550      0.61117      .   S
    C246   O550      0.61117  1_565   S
    C180   O551      0.61144      .   S
    C282   O551      0.61144      .   S
    C135   O552      0.76259  1_655   S
    C136   O552      0.76259  1_565   S
    C135   O553      0.54816      .   S
    C36    O553      0.54816      .   S
    C183   O554      0.76285      .   S
    C184   O554      0.76285      .   S
    C183   O555      0.54809      .   S
    C84    O555      0.54809      .   S
    C184   O556      0.75843      .   S
    C185   O556      0.75843      .   S
    C184   O557      0.54804      .   S
    C86    O557      0.54804      .   S
    C187   O558      0.75379      .   S
    C188   O558      0.75379  1_455   S
    C187   O559      0.55070      .   S
    C91    O559      0.55070      .   S
    C136   O560      0.75853      .   S
    C137   O560      0.75853      .   S
    C136   O561      0.54793      .   S
    C38    O561      0.54793  1_655   S
    C139   O562      0.75405      .   S
    C140   O562      0.75405      .   S
    C139   O563      0.55075      .   S
    C43    O563      0.55075      .   S
    C200   O564      0.64418      .   S
    C298   O564      0.64418      .   S
    C152   O565      0.64446      .   S
    C262   O565      0.64446      .   S
    C9     O566      1.14544      .   S
    C288   O566      1.14544      .   S
    C9     O567      1.13763      .   S
    C285   O567      1.13763      .   S
    C9     O568      1.12884      .   S
    C243   O568      1.12884      .   S
    C3     O569      1.14446      .   S
    C252   O569      1.14446      .   S
    C3     O570      1.13612      .   S
    C249   O570      1.13612      .   S
    C3     O571      1.12920      .   S
    C279   O571      1.12920      .   S
    C288   O572      0.64583      .   S
    C188   O572      0.64583      .   S
    C252   O573      0.64641      .   S
    C140   O573      0.64641      .   S
    C294   O574      1.09992      .   S
    C5     O574      1.09992      .   S
    C258   O575      1.10008      .   S
    C11    O575      1.10008      .   S
    C249   O576      0.62869      .   S
    C137   O576      0.62869  1_565   S
    C285   O577      0.62871      .   S
    C185   O577      0.62871      .   S
    C185   O578      0.64512      .   S
    C286   O578      0.64512      .   S
    C137   O579      0.64496      .   S
    C250   O579      0.64496      .   S
    C188   O580      0.63421      .   S
    C287   O580      0.63421      .   S
    C140   O581      0.63293  1_545   S
    C251   O581      0.63293      .   S
    C298   O582      1.13332      .   S
    C5     O582      1.13332      .   S
    C262   O583      1.13327      .   S
    C11    O583      1.13327      .   S
    C286   O584      1.13301      .   S
    C10    O584      1.13301      .   S
    C250   O585      1.13321      .   S
    C4     O585      1.13321      .   S
    C287   O586      1.15373      .   S
    C10    O586      1.15373      .   S
    C251   O587      1.15785      .   S
    C4     O587      1.15785      .   S
    C5     O588      1.10153      .   S
    C236   O588      1.10153      .   S
    C11    O589      1.10145      .   S
    C272   O589      1.10145      .   S
    C10    O590      1.20759      .   S
    C242   O590      1.20759      .   S
    C10    O591      1.11427      .   S
    C271   O591      1.11427      .   S
    C4     O592      1.20716  1_565   S
    C278   O592      1.20716      .   S
    C4     O593      1.11231      .   S
    C235   O593      1.11231      .   S
    C243   O594      0.65275      .   S
    C131   O594      0.65275      .   S
    C279   O595      0.65270      .   S
    C179   O595      0.65270      .   S
    C242   O596      0.62596      .   S
    C131   O596      0.62596      .   S
    C278   O597      0.62601      .   S
    C179   O597      0.62601      .   S
    C131   O598      0.75996      .   S
    C130   O598      0.75996      .   S
    C179   O599      0.75977      .   S
    C178   O599      0.75977      .   S
    C272   O600      0.63714      .   S
    C167   O600      0.63714      .   S
    C236   O601      0.63741      .   S
    C119   O601      0.63741      .   S
    C271   O602      0.63642      .   S
    C167   O602      0.63642      .   S
    C235   O603      0.63647      .   S
    C119   O603      0.63647      .   S
    C167   O604      0.76155      .   S
    C166   O604      0.76155      .   S
    C119   O605      0.76161      .   S
    C118   O605      0.76161      .   S
    C34    O606      0.54880      .   S
    C130   O606      0.54880      .   S
    C130   O607      0.55060      .   S
    C35    O607      0.55060      .   S
    C130   O608      0.76161      .   S
    C129   O608      0.76161      .   S
    C178   O609      0.54876      .   S
    C82    O609      0.54876      .   S
    C178   O610      0.55063      .   S
    C83    O610      0.55063      .   S
    C178   O611      0.76155      .   S
    C177   O611      0.76155      .   S
    C33    O612      0.54493      .   S
    C129   O612      0.54493      .   S
    C81    O613      0.54499      .   S
    C177   O613      0.54499      .   S
    C129   O614      0.54698      .   S
    C32    O614      0.54698      .   S
    C129   O615      0.73940      .   S
    C209   O615      0.73940      .   S
    C177   O616      0.54705      .   S
    C80    O616      0.54705      .   S
    C177   O617      0.73916      .   S
    C221   O617      0.73916      .   S
    C166   O618      0.54747      .   S
    C71    O618      0.54747      .   S
    C166   O619      0.55021      .   S
    C70    O619      0.55021      .   S
    C166   O620      0.76470      .   S
    C165   O620      0.76470      .   S
    C118   O621      0.54750      .   S
    C23    O621      0.54750      .   S
    C118   O622      0.55006      .   S
    C22    O622      0.55006      .   S
    C118   O623      0.76478      .   S
    C117   O623      0.76478      .   S
    C20    O624      0.54611      .   S
    C117   O624      0.54611      .   S
    C68    O625      0.54611      .   S
    C165   O625      0.54611      .   S
    C69    O626      0.54847      .   S
    C165   O626      0.54847      .   S
    C21    O627      0.54840      .   S
    C117   O627      0.54840      .   S
    C165   O628      0.73489      .   S
    C218   O628      0.73489      .   S
    C117   O629      0.73511      .   S
    C206   O629      0.73511      .   S
    C274   O630      0.61099      .   S
    C169   O630      0.61099      .   S
    C238   O631      0.61080      .   S
    C121   O631      0.61080      .   S
    C209   O632      0.70040      .   S
    C121   O632      0.70040      .   S
    C209   O633      0.69805      .   S
    C120   O633      0.69805      .   S
    C221   O634      0.70053      .   S
    C169   O634      0.70053      .   S
    C237   O635      0.61342      .   S
    C120   O635      0.61342      .   S
    C232   O636      1.21736      .   S
    C2     O636      1.21736      .   S
    C234   O637      1.22135  1_565   S
    C1     O637      1.22135      .   S
    C243   O638      1.20998      .   S
    C5     O638      1.20998      .   S
    C250   O639      1.21745      .   S
    C5     O639      1.21745      .   S
    C252   O640      1.20716  1_545   S
    C4     O640      1.20716      .   S
    C261   O641      1.21252      .   S
    C2     O641      1.21252      .   S
    C268   O642      1.21669      .   S
    C8     O642      1.21669      .   S
    C270   O643      1.20973      .   S
    C7     O643      1.20973      .   S
    C279   O644      1.20905      .   S
    C11    O644      1.20905      .   S
    C286   O645      1.21970      .   S
    C11    O645      1.21970      .   S
    C288   O646      1.21721      .   S
    C10    O646      1.21721      .   S
    C297   O647      1.20890      .   S
    C8     O647      1.20890      .   S
