# CIF file generated by openbabel 2.4.90, see http://openbabel.sf.net
data_I
_chemical_name_common ''
_cell_length_a 13.687
_cell_length_b 17.852
_cell_length_c 21.787
_cell_angle_alpha 89.91
_cell_angle_beta 89.977
_cell_angle_gamma 89.998
_space_group_name_H-M_alt 'P 1'
_space_group_name_Hall 'P 1'
loop_
    _symmetry_equiv_pos_as_xyz
    x,y,z
loop_
    _atom_site_label
    _atom_site_type_symbol
    _atom_site_fract_x
    _atom_site_fract_y
    _atom_site_fract_z
    _atom_site_occupancy
    Zr0     Zr   0.69727   0.87356   0.14849   1.000
    Zr1     Zr   0.67597   0.05892   0.23460   1.000
    Zr2     Zr   0.85185   0.20114   0.21502   1.000
    Zr3     Zr   0.30271   0.12855   0.64930   1.000
    Zr4     Zr   0.32303   0.94338   0.73579   1.000
    Zr5     Zr   0.14768   0.80182   0.71464   1.000
    Zr6     Zr   0.80282   0.37349   0.14920   1.000
    Zr7     Zr   0.82343   0.55883   0.23526   1.000
    Zr8     Zr   0.64785   0.70091   0.21490   1.000
    Zr9     Zr   0.19685   0.62877   0.64912   1.000
    Zr10    Zr   0.17653   0.44341   0.73548   1.000
    Zr11    Zr   0.35211   0.30146   0.71472   1.000
    Zr12    Zr   0.86779   0.01349   0.16520   1.000
    Zr13    Zr   0.52550   0.00000   0.16765   1.000
    Zr14    Zr   0.20578   0.85831   0.84247   1.000
    Zr15    Zr   0.51079   0.76629   0.11220   1.000
    Zr16    Zr   0.84475   0.72929   0.13853   1.000
    Zr17    Zr   0.16961   0.62939   0.79299   1.000
    Zr18    Zr   0.13148   0.98925   0.66504   1.000
    Zr19    Zr   0.47505   0.00041   0.67007   1.000
    Zr20    Zr   0.79339   0.14368   0.34198   1.000
    Zr21    Zr   0.48982   0.23472   0.61255   1.000
    Zr22    Zr   0.15514   0.27363   0.63922   1.000
    Zr23    Zr   0.83008   0.37336   0.29360   1.000
    Zr24    Zr   0.63195   0.51333   0.16524   1.000
    Zr25    Zr   0.97478   0.50203   0.16878   1.000
    Zr26    Zr   0.29422   0.35855   0.84238   1.000
    Zr27    Zr   0.98915   0.26663   0.11234   1.000
    Zr28    Zr   0.65518   0.22939   0.13830   1.000
    Zr29    Zr   0.32850   0.12925   0.79313   1.000
    Zr30    Zr   0.36809   0.48920   0.66495   1.000
    Zr31    Zr   0.02513   0.50069   0.66900   1.000
    Zr32    Zr   0.70650   0.64383   0.34210   1.000
    Zr33    Zr   0.00996   0.73631   0.61259   1.000
    Zr34    Zr   0.34468   0.77370   0.63877   1.000
    Zr35    Zr   0.66979   0.87324   0.29253   1.000
    Zr36    Zr   0.82919   0.95034   0.15741   1.000
    Zr37    Zr   0.82815   0.06832   0.19461   1.000
    Zr38    Zr   0.51262   0.04748   0.21074   1.000
    Zr39    Zr   0.61270   0.98435   0.14952   1.000
    Zr40    Zr   0.28735   0.88095   0.82136   1.000
    Zr41    Zr   0.13278   0.83520   0.81150   1.000
    Zr42    Zr   0.52101   0.71666   0.15430   1.000
    Zr43    Zr   0.56980   0.81847   0.09889   1.000
    Zr44    Zr   0.17980   0.55971   0.79192   1.000
    Zr45    Zr   0.16285   0.67162   0.74420   1.000
    Zr46    Zr   0.80398   0.69033   0.18126   1.000
    Zr47    Zr   0.81278   0.79041   0.11723   1.000
    Zr48    Zr   0.17039   0.05209   0.65586   1.000
    Zr49    Zr   0.17078   0.93507   0.69551   1.000
    Zr50    Zr   0.48765   0.95277   0.71243   1.000
    Zr51    Zr   0.38772   0.01821   0.65280   1.000
    Zr52    Zr   0.71207   0.12178   0.32012   1.000
    Zr53    Zr   0.86730   0.16649   0.31167   1.000
    Zr54    Zr   0.47840   0.28512   0.65368   1.000
    Zr55    Zr   0.43195   0.18160   0.59992   1.000
    Zr56    Zr   0.82017   0.44310   0.29288   1.000
    Zr57    Zr   0.83684   0.33148   0.24474   1.000
    Zr58    Zr   0.19584   0.31301   0.68164   1.000
    Zr59    Zr   0.18752   0.21254   0.61835   1.000
    Zr60    Zr   0.67063   0.45018   0.15736   1.000
    Zr61    Zr   0.67150   0.56812   0.19469   1.000
    Zr62    Zr   0.98760   0.54985   0.21088   1.000
    Zr63    Zr   0.88736   0.48412   0.15184   1.000
    Zr64    Zr   0.21268   0.38119   0.82127   1.000
    Zr65    Zr   0.36712   0.33512   0.81149   1.000
    Zr66    Zr   0.97896   0.21718   0.15450   1.000
    Zr67    Zr   0.93011   0.31879   0.09890   1.000
    Zr68    Zr   0.31660   0.05973   0.79198   1.000
    Zr69    Zr   0.33677   0.17141   0.74439   1.000
    Zr70    Zr   0.69569   0.19037   0.18115   1.000
    Zr71    Zr   0.68734   0.29052   0.11723   1.000
    Zr72    Zr   0.32920   0.55210   0.65606   1.000
    Zr73    Zr   0.32894   0.43492   0.69543   1.000
    Zr74    Zr   0.01273   0.45346   0.71185   1.000
    Zr75    Zr   0.11221   0.51809   0.65109   1.000
    Zr76    Zr   0.78796   0.62204   0.32035   1.000
    Zr77    Zr   0.63259   0.66636   0.31176   1.000
    Zr78    Zr   0.02127   0.78694   0.65354   1.000
    Zr79    Zr   0.06800   0.68324   0.60009   1.000
    Zr80    Zr   0.67990   0.94293   0.29122   1.000
    Zr81    Zr   0.66286   0.83109   0.24384   1.000
    Zr82    Zr   0.30364   0.81333   0.68089   1.000
    Zr83    Zr   0.31264   0.71237   0.61817   1.000
    O84     O    0.54030   0.79238   0.10555   1.000
    O85     O    0.63354   0.84602   0.12369   1.000
    O86     O    0.95963   0.29271   0.10562   1.000
    O87     O    0.86646   0.34614   0.12405   1.000
    O88     O    0.51590   0.74147   0.13325   1.000
    O89     O    0.98405   0.24191   0.13342   1.000
    O90     O    0.82876   0.75985   0.12788   1.000
    O91     O    0.75503   0.83198   0.13286   1.000
    O92     O    0.67126   0.25996   0.12777   1.000
    O93     O    0.74508   0.33200   0.13322   1.000
    O94     O    0.67544   0.20988   0.15973   1.000
    O95     O    0.82436   0.70981   0.15990   1.000
    O96     O    0.65499   0.92896   0.14900   1.000
    O97     O    0.76323   0.91195   0.15295   1.000
    O98     O    0.68007   0.85233   0.19617   1.000
    O99     O    0.84509   0.42880   0.15052   1.000
    O100    O    0.73672   0.41183   0.15328   1.000
    O101    O    0.81983   0.35248   0.19697   1.000
    O102    O    0.56910   0.99218   0.15859   1.000
    O103    O    0.93107   0.49308   0.16031   1.000
    O104    O    0.58443   0.70878   0.18460   1.000
    O105    O    0.91540   0.20916   0.18476   1.000
    O106    O    0.65129   0.48175   0.16130   1.000
    O107    O    0.84849   0.98191   0.16131   1.000
    O108    O    0.84797   0.04091   0.17991   1.000
    O109    O    0.65172   0.54072   0.17997   1.000
    O110    O    0.51906   0.02374   0.18920   1.000
    O111    O    0.98119   0.52594   0.18983   1.000
    O112    O    0.77377   0.19575   0.19809   1.000
    O113    O    0.72591   0.69562   0.19808   1.000
    O114    O    0.75206   0.06362   0.21461   1.000
    O115    O    0.74747   0.56347   0.21498   1.000
    O116    O    0.59429   0.05320   0.22267   1.000
    O117    O    0.90552   0.55434   0.22307   1.000
    O118    O    0.64022   0.68363   0.26333   1.000
    O119    O    0.85957   0.18381   0.26334   1.000
    O120    O    0.67793   0.00092   0.26291   1.000
    O121    O    0.69402   0.09035   0.27736   1.000
    O122    O    0.82180   0.50096   0.26407   1.000
    O123    O    0.80569   0.59043   0.27781   1.000
    O124    O    0.66632   0.85217   0.26819   1.000
    O125    O    0.83346   0.35242   0.26917   1.000
    O126    O    0.67485   0.90809   0.29188   1.000
    O127    O    0.82513   0.40823   0.29324   1.000
    O128    O    0.83034   0.15509   0.32683   1.000
    O129    O    0.66954   0.65509   0.32693   1.000
    O130    O    0.75273   0.13273   0.33105   1.000
    O131    O    0.74723   0.63293   0.33123   1.000
    O132    O    0.46088   0.20816   0.60624   1.000
    O133    O    0.36733   0.15508   0.62461   1.000
    O134    O    0.03898   0.70978   0.60634   1.000
    O135    O    0.13243   0.65601   0.62461   1.000
    O136    O    0.48411   0.25992   0.63312   1.000
    O137    O    0.01561   0.76163   0.63306   1.000
    O138    O    0.32866   0.74303   0.62847   1.000
    O139    O    0.25474   0.67057   0.63365   1.000
    O140    O    0.17133   0.24308   0.62879   1.000
    O141    O    0.24511   0.17055   0.63382   1.000
    O142    O    0.32416   0.79351   0.65983   1.000
    O143    O    0.17549   0.29332   0.66043   1.000
    O144    O    0.15453   0.57343   0.65011   1.000
    O145    O    0.26302   0.59043   0.65259   1.000
    O146    O    0.17985   0.65019   0.69666   1.000
    O147    O    0.34521   0.07338   0.65105   1.000
    O148    O    0.23655   0.09032   0.65258   1.000
    O149    O    0.31974   0.14998   0.69684   1.000
    O150    O    0.06867   0.50939   0.66005   1.000
    O151    O    0.43139   0.00931   0.66144   1.000
    O152    O    0.08448   0.79438   0.68409   1.000
    O153    O    0.41525   0.29329   0.68420   1.000
    O154    O    0.15093   0.02067   0.66045   1.000
    O155    O    0.34864   0.52065   0.66051   1.000
    O156    O    0.34851   0.46206   0.68019   1.000
    O157    O    0.15113   0.96216   0.68027   1.000
    O158    O    0.01893   0.47707   0.69043   1.000
    O159    O    0.48135   0.97659   0.69125   1.000
    O160    O    0.22566   0.80758   0.69777   1.000
    O161    O    0.27397   0.30723   0.69818   1.000
    O162    O    0.25274   0.43916   0.71546   1.000
    O163    O    0.24691   0.93922   0.71565   1.000
    O164    O    0.09463   0.44843   0.72367   1.000
    O165    O    0.40534   0.94807   0.72411   1.000
    O166    O    0.14023   0.81851   0.76307   1.000
    O167    O    0.35961   0.31829   0.76311   1.000
    O168    O    0.17816   0.50156   0.76370   1.000
    O169    O    0.19461   0.41230   0.77838   1.000
    O170    O    0.31982   0.00156   0.76389   1.000
    O171    O    0.30519   0.91217   0.77858   1.000
    O172    O    0.16623   0.65050   0.76860   1.000
    O173    O    0.33263   0.15033   0.76876   1.000
    O174    O    0.17470   0.59455   0.79246   1.000
    O175    O    0.32255   0.09449   0.79256   1.000
    O176    O    0.33067   0.34683   0.82693   1.000
    O177    O    0.16928   0.84675   0.82698   1.000
    O178    O    0.25345   0.36987   0.83182   1.000
    O179    O    0.24656   0.86963   0.83192   1.000
    O180    O    0.84000   0.13473   0.20482   1.000
    O181    O    0.64434   0.02164   0.19206   1.000
    O182    O    0.15526   0.73672   0.72942   1.000
    O183    O    0.15923   0.86845   0.70508   1.000
    O184    O    0.35538   0.98080   0.69430   1.000
    O185    O    0.84434   0.26631   0.22988   1.000
    O186    O    0.65967   0.63451   0.20480   1.000
    O187    O    0.85539   0.52148   0.19355   1.000
    O188    O    0.34444   0.23643   0.72956   1.000
    O189    O    0.34052   0.36819   0.70508   1.000
    O190    O    0.14437   0.48075   0.69329   1.000
    O191    O    0.65535   0.76600   0.22937   1.000
    N192    N    0.32787   0.19827   0.02048   1.000
    O193    O    0.32912   0.17397   0.92208   1.000
    O194    O    0.18184   0.23143   0.05680   1.000
    O195    O    0.46810   0.20587   0.07255   1.000
    N196    N    0.80132   0.03636   0.56081   1.000
    O197    O    0.66006   0.02696   0.60759   1.000
    O198    O    0.79984   0.08957   0.46880   1.000
    O199    O    0.94123   0.00935   0.60623   1.000
    N200    N    0.82801   0.30380   0.52122   1.000
    O201    O    0.68233   0.27028   0.55738   1.000
    O202    O    0.96805   0.29655   0.57341   1.000
    O203    O    0.82982   0.32822   0.42264   1.000
    N204    N    0.69825   0.53648   0.56073   1.000
    O205    O    0.83972   0.52715   0.60714   1.000
    O206    O    0.55829   0.50940   0.60606   1.000
    O207    O    0.69989   0.58970   0.46883   1.000
    N208    N    0.30240   0.46586   0.06075   1.000
    O209    O    0.44206   0.49298   0.10621   1.000
    O210    O    0.16042   0.47531   0.10693   1.000
    O211    O    0.30115   0.41267   0.96895   1.000
    N212    N    0.67175   0.80442   0.52077   1.000
    O213    O    0.81742   0.77130   0.55718   1.000
    O214    O    0.67001   0.82855   0.42194   1.000
    O215    O    0.53174   0.79692   0.57295   1.000
    N216    N    0.17195   0.69802   0.02072   1.000
    O217    O    0.16997   0.67394   0.92212   1.000
    O218    O    0.03179   0.70567   0.07282   1.000
    O219    O    0.31798   0.73121   0.05694   1.000
    N220    N    0.19630   0.96509   0.06073   1.000
    O221    O    0.19825   0.91210   0.96899   1.000
    O222    O    0.33900   0.97418   0.10640   1.000
    O223    O    0.05717   0.99266   0.10619   1.000
loop_
    _geom_bond_atom_site_label_1
    _geom_bond_atom_site_label_2
    _geom_bond_distance
    _geom_bond_site_symmetry_2
    _ccdc_geom_bond_type
    Zr43   O84       0.63311      .   S
    Zr15   O84       0.63311      .   S
    Zr43   O85       1.13844      .   S
    Zr0    O85       1.13844      .   S
    Zr67   O86       0.63345      .   S
    Zr27   O86       0.63345      .   S
    Zr67   O87       1.13921      .   S
    Zr6    O87       1.13921      .   S
    Zr15   O88       0.64093      .   S
    Zr42   O88       0.64093      .   S
    Zr27   O89       0.64031      .   S
    Zr66   O89       0.64031      .   S
    Zr47   O90       0.63162      .   S
    Zr16   O90       0.63162      .   S
    Zr47   O91       1.13677      .   S
    Zr0    O91       1.13677      .   S
    Zr71   O92       0.63124      .   S
    Zr28   O92       0.63124      .   S
    Zr71   O93       1.13812      .   S
    Zr6    O93       1.13812      .   S
    Zr28   O94       0.64472      .   S
    Zr70   O94       0.64472      .   S
    Zr16   O95       0.64411      .   S
    Zr46   O95       0.64411      .   S
    Zr0    O96       1.14586      .   S
    Zr39   O96       1.14586      .   S
    Zr0    O97       1.13769      .   S
    Zr36   O97       1.13769      .   S
    Zr0    O98       1.12990      .   S
    Zr81   O98       1.12990      .   S
    Zr6    O99       1.14496      .   S
    Zr63   O99       1.14496      .   S
    Zr6    O100      1.13798      .   S
    Zr60   O100      1.13798      .   S
    Zr6    O101      1.13001      .   S
    Zr57   O101      1.13001      .   S
    Zr39   O102      0.64393      .   S
    Zr13   O102      0.64393  1_545   S
    Zr63   O103      0.64626      .   S
    Zr25   O103      0.64626      .   S
    Zr42   O104      1.09964      .   S
    Zr8    O104      1.09964      .   S
    Zr66   O105      1.10051      .   S
    Zr2    O105      1.10051      .   S
    Zr60   O106      0.62872      .   S
    Zr24   O106      0.62872      .   S
    Zr36   O107      0.62844      .   S
    Zr12   O107      0.62844  1_545   S
    Zr12   O108      0.64514      .   S
    Zr37   O108      0.64514      .   S
    Zr24   O109      0.64494      .   S
    Zr61   O109      0.64494      .   S
    Zr13   O110      0.63897      .   S
    Zr38   O110      0.63897      .   S
    Zr25   O111      0.63313      .   S
    Zr62   O111      0.63313      .   S
    Zr70   O112      1.13481      .   S
    Zr2    O112      1.13481      .   S
    Zr46   O113      1.13343      .   S
    Zr8    O113      1.13343      .   S
    Zr37   O114      1.13182      .   S
    Zr1    O114      1.13182      .   S
    Zr61   O115      1.13289      .   S
    Zr7    O115      1.13289      .   S
    Zr38   O116      1.15236      .   S
    Zr1    O116      1.15236      .   S
    Zr62   O117      1.15718      .   S
    Zr7    O117      1.15718      .   S
    Zr8    O118      1.10372      .   S
    Zr77   O118      1.10372      .   S
    Zr2    O119      1.10199      .   S
    Zr53   O119      1.10199      .   S
    Zr1    O120      1.20459      .   S
    Zr80   O120      1.20459  1_565   S
    Zr1    O121      1.11608      .   S
    Zr52   O121      1.11608      .   S
    Zr7    O122      1.20814      .   S
    Zr56   O122      1.20814      .   S
    Zr7    O123      1.11261      .   S
    Zr76   O123      1.11261      .   S
    Zr81   O124      0.65254      .   S
    Zr35   O124      0.65254      .   S
    Zr57   O125      0.65252      .   S
    Zr23   O125      0.65252      .   S
    Zr80   O126      0.62599      .   S
    Zr35   O126      0.62599      .   S
    Zr56   O127      0.62617      .   S
    Zr23   O127      0.62617      .   S
    Zr53   O128      0.63716      .   S
    Zr20   O128      0.63716      .   S
    Zr77   O129      0.63674      .   S
    Zr32   O129      0.63674      .   S
    Zr52   O130      0.63629      .   S
    Zr20   O130      0.63629      .   S
    Zr76   O131      0.63623      .   S
    Zr32   O131      0.63623      .   S
    Zr55   O132      0.63308      .   S
    Zr21   O132      0.63308      .   S
    Zr55   O133      1.13787      .   S
    Zr3    O133      1.13787      .   S
    Zr79   O134      0.63308      .   S
    Zr33   O134      0.63308      .   S
    Zr79   O135      1.13967      .   S
    Zr9    O135      1.13967      .   S
    Zr21   O136      0.64020      .   S
    Zr54   O136      0.64020      .   S
    Zr33   O137      0.64025      .   S
    Zr78   O137      0.64025      .   S
    Zr83   O138      0.63131      .   S
    Zr34   O138      0.63131      .   S
    Zr83   O139      1.13902      .   S
    Zr9    O139      1.13902      .   S
    Zr59   O140      0.63123      .   S
    Zr22   O140      0.63123      .   S
    Zr59   O141      1.13861      .   S
    Zr3    O141      1.13861      .   S
    Zr34   O142      0.64418      .   S
    Zr82   O142      0.64418      .   S
    Zr22   O143      0.64446      .   S
    Zr58   O143      0.64446      .   S
    Zr9    O144      1.14544      .   S
    Zr75   O144      1.14544      .   S
    Zr9    O145      1.13763      .   S
    Zr72   O145      1.13763      .   S
    Zr9    O146      1.12884      .   S
    Zr45   O146      1.12884      .   S
    Zr3    O147      1.14446      .   S
    Zr51   O147      1.14446      .   S
    Zr3    O148      1.13612      .   S
    Zr48   O148      1.13612      .   S
    Zr3    O149      1.12920      .   S
    Zr69   O149      1.12920      .   S
    Zr75   O150      0.64583      .   S
    Zr31   O150      0.64583      .   S
    Zr51   O151      0.64641      .   S
    Zr19   O151      0.64641      .   S
    Zr78   O152      1.09992      .   S
    Zr5    O152      1.09992      .   S
    Zr54   O153      1.10008      .   S
    Zr11   O153      1.10008      .   S
    Zr48   O154      0.62869      .   S
    Zr18   O154      0.62869  1_565   S
    Zr72   O155      0.62871      .   S
    Zr30   O155      0.62871      .   S
    Zr30   O156      0.64512      .   S
    Zr73   O156      0.64512      .   S
    Zr18   O157      0.64496      .   S
    Zr49   O157      0.64496      .   S
    Zr31   O158      0.63421      .   S
    Zr74   O158      0.63421      .   S
    Zr19   O159      0.63293  1_545   S
    Zr50   O159      0.63293      .   S
    Zr82   O160      1.13332      .   S
    Zr5    O160      1.13332      .   S
    Zr58   O161      1.13327      .   S
    Zr11   O161      1.13327      .   S
    Zr73   O162      1.13301      .   S
    Zr10   O162      1.13301      .   S
    Zr49   O163      1.13321      .   S
    Zr4    O163      1.13321      .   S
    Zr74   O164      1.15373      .   S
    Zr10   O164      1.15373      .   S
    Zr50   O165      1.15785      .   S
    Zr4    O165      1.15785      .   S
    Zr5    O166      1.10153      .   S
    Zr41   O166      1.10153      .   S
    Zr11   O167      1.10145      .   S
    Zr65   O167      1.10145      .   S
    Zr10   O168      1.20759      .   S
    Zr44   O168      1.20759      .   S
    Zr10   O169      1.11427      .   S
    Zr64   O169      1.11427      .   S
    Zr4    O170      1.20716  1_565   S
    Zr68   O170      1.20716      .   S
    Zr4    O171      1.11231      .   S
    Zr40   O171      1.11231      .   S
    Zr45   O172      0.65275      .   S
    Zr17   O172      0.65275      .   S
    Zr69   O173      0.65270      .   S
    Zr29   O173      0.65270      .   S
    Zr44   O174      0.62596      .   S
    Zr17   O174      0.62596      .   S
    Zr68   O175      0.62601      .   S
    Zr29   O175      0.62601      .   S
    Zr65   O176      0.63714      .   S
    Zr26   O176      0.63714      .   S
    Zr41   O177      0.63741      .   S
    Zr14   O177      0.63741      .   S
    Zr64   O178      0.63642      .   S
    Zr26   O178      0.63642      .   S
    Zr40   O179      0.63647      .   S
    Zr14   O179      0.63647      .   S
    Zr37   O180      1.21736      .   S
    Zr2    O180      1.21736      .   S
    Zr39   O181      1.22135  1_565   S
    Zr1    O181      1.22135      .   S
    Zr45   O182      1.20998      .   S
    Zr5    O182      1.20998      .   S
    Zr49   O183      1.21745      .   S
    Zr5    O183      1.21745      .   S
    Zr51   O184      1.20716  1_545   S
    Zr4    O184      1.20716      .   S
    Zr57   O185      1.21252      .   S
    Zr2    O185      1.21252      .   S
    Zr61   O186      1.21669      .   S
    Zr8    O186      1.21669      .   S
    Zr63   O187      1.20973      .   S
    Zr7    O187      1.20973      .   S
    Zr69   O188      1.20905      .   S
    Zr11   O188      1.20905      .   S
    Zr73   O189      1.21970      .   S
    Zr11   O189      1.21970      .   S
    Zr75   O190      1.21721      .   S
    Zr10   O190      1.21721      .   S
    Zr81   O191      1.20890      .   S
    Zr8    O191      1.20890      .   S
    N192   O193      2.18801  1_554   S
    Zr29   O193      2.92185      .   S
    N192   O194      2.22968      .   S
    Zr27   O194      2.96901  1_655   S
    N192   O195      2.23410      .   S
    Zr28   O195      2.96481      .   S
    N196   O197      2.19159      .   S
    Zr19   O197      2.91286      .   S
    N196   O198      2.21704      .   S
    Zr20   O198      2.92691      .   S
    N196   O199      2.20881      .   S
    Zr18   O199      2.92446  1_465   S
    N200   O201      2.22514      .   S
    Zr21   O201      2.96414      .   S
    N200   O202      2.23263      .   S
    Zr22   O202      2.96333  1_455   S
    N200   O203      2.19117      .   S
    Zr23   O203      2.92337      .   S
    N204   O205      2.19108      .   S
    Zr31   O205      2.91204  1_455   S
    N204   O206      2.20809      .   S
    Zr30   O206      2.92392      .   S
    N204   O207      2.21506      .   S
    Zr32   O207      2.92510      .   S
    N208   O209      2.20736      .   S
    Zr24   O209      2.92315      .   S
    N208   O210      2.19455      .   S
    Zr25   O210      2.91525  1_655   S
    N208   O211      2.21552  1_554   S
    Zr26   O211      2.92488      .   S
    N212   O213      2.22583      .   S
    Zr33   O213      2.96510  1_455   S
    N212   O214      2.19545      .   S
    Zr35   O214      2.92895      .   S
    N212   O215      2.23162      .   S
    Zr34   O215      2.96292      .   S
    N216   O217      2.19149  1_554   S
    Zr17   O217      2.92491      .   S
    N216   O218      2.23295      .   S
    Zr16   O218      2.96302  1_655   S
    N216   O219      2.22972      .   S
    Zr15   O219      2.96836      .   S
    N220   O221      2.21286  1_554   S
    Zr14   O221      2.92210      .   S
    N220   O222      2.19854      .   S
    Zr13   O222      2.91779  1_545   S
    N220   O223      2.20215      .   S
    Zr12   O223      2.91691  1_645   S
