# CIF file generated by openbabel 2.4.90, see http://openbabel.sf.net
data_I
_chemical_name_common ''
_cell_length_a 6.378
_cell_length_b 12.29
_cell_length_c 15.5126
_cell_angle_alpha 89.9841
_cell_angle_beta 78.4341
_cell_angle_gamma 89.976
_space_group_name_H-M_alt 'P 1'
_space_group_name_Hall 'P 1'
loop_
    _symmetry_equiv_pos_as_xyz
    x,y,z
loop_
    _atom_site_label
    _atom_site_type_symbol
    _atom_site_fract_x
    _atom_site_fract_y
    _atom_site_fract_z
    _atom_site_occupancy
    Zr0     Zr   0.70270   0.04745   0.05880   1.000
    Zr1     Zr   0.29696   0.54761   0.44134   1.000
    Zr2     Zr   0.29689   0.95246   0.94134   1.000
    Zr3     Zr   0.70288   0.45253   0.55868   1.000
    N4      N    0.12850   0.73605   0.76445   1.000
    O5      O    0.23834   0.65526   0.63515   1.000
    O6      O    0.33982   0.63149   0.66449   1.000
    O7      O    0.89456   0.63027   0.68856   1.000
    O8      O    0.96788   0.86050   0.88497   1.000
    N9      N    0.12847   0.76408   0.26437   1.000
    O10     O    0.96777   0.63958   0.38489   1.000
    O11     O    0.23831   0.84491   0.13514   1.000
    O12     O    0.33977   0.86866   0.16450   1.000
    O13     O    0.89456   0.86975   0.18855   1.000
    N14     N    0.87154   0.26407   0.23574   1.000
    O15     O    0.10537   0.36982   0.31152   1.000
    O16     O    0.76157   0.34507   0.36492   1.000
    O17     O    0.66009   0.36884   0.33558   1.000
    O18     O    0.03218   0.13958   0.11517   1.000
    N19     N    0.87149   0.23613   0.73575   1.000
    O20     O    0.76139   0.15525   0.86502   1.000
    O21     O    0.65994   0.13150   0.83566   1.000
    O22     O    0.03208   0.36055   0.61517   1.000
    O23     O    0.10544   0.13028   0.81151   1.000
    O24     O    0.20744   0.82960   0.84767   1.000
    O25     O    0.20735   0.67055   0.34762   1.000
    O26     O    0.79256   0.17050   0.15249   1.000
    O27     O    0.79254   0.32962   0.65245   1.000
loop_
    _geom_bond_atom_site_label_1
    _geom_bond_atom_site_label_2
    _geom_bond_distance
    _geom_bond_site_symmetry_2
    _ccdc_geom_bond_type
    N4     O5        2.22182      .   S
    Zr1    O5        3.23736      .   S
    N4     O6        2.24365      .   S
    Zr3    O6        3.37151      .   S
    N4     O7        2.45135  1_455   S
    Zr3    O7        3.36420      .   S
    N4     O8        2.47312  1_455   S
    Zr0    O8        3.68548  1_544   S
    N9     O10       2.47347  1_455   S
    Zr3    O10       3.68525      .   S
    N9     O11       2.22108      .   S
    Zr2    O11       3.23610  1_556   S
    N9     O12       2.24312      .   S
    Zr0    O12       3.36985  1_545   S
    N9     O13       2.44888  1_455   S
    Zr0    O13       3.36182  1_545   S
    N14    O15       2.44966  1_655   S
    Zr1    O15       3.36377      .   S
    N14    O16       2.22162      .   S
    Zr3    O16       3.23574      .   S
    N14    O17       2.24450      .   S
    Zr1    O17       3.36999      .   S
    N14    O18       2.47389  1_655   S
    Zr2    O18       3.68579  1_566   S
    N19    O20       2.22198      .   S
    Zr0    O20       3.23699  1_554   S
    N19    O21       2.24449      .   S
    Zr2    O21       3.37213  1_565   S
    N19    O22       2.47333  1_655   S
    Zr1    O22       3.68568      .   S
    N19    O23       2.44963  1_655   S
    Zr2    O23       3.36226  1_565   S
    Zr2    O24       2.24757      .   S
    N4     O24       1.87190      .   S
    Zr1    O25       2.24829      .   S
    N9     O25       1.87107      .   S
    Zr0    O26       2.25026      .   S
    N14    O26       1.87240      .   S
    Zr3    O27       2.24855      .   S
    N19    O27       1.87168      .   S
