# CIF file generated by openbabel 2.4.90, see http://openbabel.sf.net
data_I
_chemical_name_common ''
_cell_length_a 19.145
_cell_length_b 19.199
_cell_length_c 17.42
_cell_angle_alpha 95.567
_cell_angle_beta 105.607
_cell_angle_gamma 90.234
_space_group_name_H-M_alt 'P 1'
_space_group_name_Hall 'P 1'
loop_
    _symmetry_equiv_pos_as_xyz
    x,y,z
loop_
    _atom_site_label
    _atom_site_type_symbol
    _atom_site_fract_x
    _atom_site_fract_y
    _atom_site_fract_z
    _atom_site_occupancy
    O0      O    0.20662   0.61750   0.99287   1.000
    O1      O    0.70722   0.13828   0.99980   1.000
    O2      O    0.70754   0.63801   0.99944   1.000
    C3      C    0.36012   0.37229   0.00000   1.000
    C4      C    0.35733   0.87353   0.00000   1.000
    C5      C    0.85802   0.37171   0.99771   1.000
    C6      C    0.85809   0.87096   0.99795   1.000
    C7      C    0.14187   0.12244   0.00000   1.000
    C8      C    0.14171   0.63068   0.99633   1.000
    C9      C    0.64196   0.12013   0.99765   1.000
    C10     C    0.64192   0.62114   0.99725   1.000
    O11     O    0.41404   0.37551   0.06471   1.000
    O12     O    0.41098   0.87778   0.06640   1.000
    O13     O    0.91143   0.37424   0.06272   1.000
    O14     O    0.91177   0.87422   0.06275   1.000
    O15     O    0.37443   0.35273   0.93159   1.000
    O16     O    0.37244   0.85266   0.93395   1.000
    O17     O    0.87265   0.35000   0.93009   1.000
    O18     O    0.87209   0.84766   0.93045   1.000
    O19     O    0.09399   0.10078   0.93240   1.000
    O20     O    0.08732   0.62580   0.93195   1.000
    O21     O    0.59447   0.09745   0.93014   1.000
    O22     O    0.59396   0.59912   0.92984   1.000
    O23     O    0.12024   0.12527   0.06511   1.000
    O24     O    0.12737   0.65011   0.06466   1.000
    O25     O    0.62033   0.12246   0.06269   1.000
    O26     O    0.62050   0.62423   0.06250   1.000
    O27     O    0.29552   0.38695   0.00320   1.000
    O28     O    0.29231   0.88837   0.00357   1.000
    O29     O    0.79361   0.38878   0.99965   1.000
    O30     O    0.79391   0.88882   0.00000   1.000
    O31     O    0.20757   0.13921   0.00246   1.000
loop_
    _geom_bond_atom_site_label_1
    _geom_bond_atom_site_label_2
    _geom_bond_distance
    _geom_bond_site_symmetry_2
    _ccdc_geom_bond_type
    C7     O31       1.28558      .   S
    C7     O23       1.30452      .   S
    C7     O19       1.31185  1_554   S
    C4     O28       1.29457      .   S
    C4     O12       1.31959      .   S
    C4     O16       1.28789  1_554   S
    C3     O27       1.28401      .   S
    C3     O11       1.30391      .   S
    C3     O15       1.31375  1_554   S
    O30    C6        1.28579  1_554   S
    O26    C10       1.30440  1_554   S
    O25    C9        1.30374  1_554   S
    O13    C5        1.30250  1_554   S
    O14    C6        1.30230  1_554   S
    O24    C8        1.31217  1_554   S
    O22    C10       1.31189      .   S
    O17    C5        1.31269      .   S
    O21    C9        1.31196      .   S
    O18    C6        1.31269      .   S
    O20    C8        1.30427      .   S
    O0     C8        1.28536      .   S
    C10    O2        1.28580      .   S
    C9     O1        1.28562      .   S
    C5     O29       1.28544      .   S
