# CIF file generated by openbabel 2.4.90, see http://openbabel.sf.net
data_I
_chemical_name_common ''
_cell_length_a 19.145
_cell_length_b 19.199
_cell_length_c 17.42
_cell_angle_alpha 95.567
_cell_angle_beta 105.607
_cell_angle_gamma 90.234
_space_group_name_H-M_alt 'P 1'
_space_group_name_Hall 'P 1'
loop_
    _symmetry_equiv_pos_as_xyz
    x,y,z
loop_
    _atom_site_label
    _atom_site_type_symbol
    _atom_site_fract_x
    _atom_site_fract_y
    _atom_site_fract_z
    _atom_site_occupancy
    H0      H    0.25918   0.31824   0.05972   1.000
    H1      H    0.25341   0.82366   0.06459   1.000
    H2      H    0.75851   0.31678   0.05718   1.000
    H3      H    0.75931   0.81722   0.05743   1.000
    H4      H    0.21840   0.23603   0.05000   1.000
    H5      H    0.19592   0.75409   0.06910   1.000
    H6      H    0.71886   0.23385   0.04683   1.000
    H7      H    0.71990   0.73423   0.04721   1.000
    H8      H    0.06736   0.03182   0.17786   1.000
    H9      H    0.06368   0.53368   0.18048   1.000
    H10     H    0.56875   0.02977   0.17695   1.000
    H11     H    0.56930   0.52744   0.17474   1.000
    H12     H    0.49732   0.47318   0.12160   1.000
    H13     H    0.49619   0.97610   0.12391   1.000
    H14     H    0.99346   0.47846   0.12410   1.000
    H15     H    0.99560   0.97807   0.12348   1.000
    H16     H    0.34693   0.17189   0.30520   1.000
    H17     H    0.35043   0.66935   0.30239   1.000
    H18     H    0.84511   0.17125   0.30365   1.000
    H19     H    0.84696   0.67130   0.30348   1.000
    H20     H    0.11608   0.39120   0.40062   1.000
    H21     H    0.11664   0.89289   0.40145   1.000
    H22     H    0.61737   0.39312   0.40225   1.000
    H23     H    0.61881   0.89253   0.40226   1.000
    H24     H    0.22685   0.43571   0.93800   1.000
    H25     H    0.21842   0.93172   0.93533   1.000
    H26     H    0.71748   0.43036   0.93173   1.000
    H27     H    0.71783   0.92948   0.93246   1.000
    H28     H    0.18570   0.51482   0.94389   1.000
    H29     H    0.15396   0.99714   0.92566   1.000
    H30     H    0.65253   0.49521   0.92177   1.000
    H31     H    0.65276   0.99435   0.92213   1.000
    H32     H    0.48853   0.23463   0.82705   1.000
    H33     H    0.48595   0.73192   0.82700   1.000
    H34     H    0.98846   0.23389   0.82679   1.000
    H35     H    0.98989   0.73253   0.82878   1.000
    H36     H    0.44011   0.28787   0.87981   1.000
    H37     H    0.43887   0.78582   0.88068   1.000
    H38     H    0.93996   0.28722   0.87948   1.000
    H39     H    0.93978   0.78478   0.88016   1.000
    H40     H    0.20007   0.08181   0.69545   1.000
    H41     H    0.19521   0.57898   0.69110   1.000
    H42     H    0.70164   0.08023   0.69393   1.000
    H43     H    0.69939   0.58036   0.69215   1.000
    H44     H    0.40870   0.35446   0.58975   1.000
    H45     H    0.40922   0.85546   0.59202   1.000
    H46     H    0.90967   0.35423   0.58960   1.000
    H47     H    0.91276   0.85482   0.59210   1.000
    H48     H    0.24862   0.18145   0.93425   1.000
    H49     H    0.24686   0.67979   0.93468   1.000
    H50     H    0.74983   0.17952   0.93162   1.000
    H51     H    0.74827   0.67860   0.93069   1.000
    H52     H    0.30874   0.24684   0.92448   1.000
    H53     H    0.30525   0.74871   0.92944   1.000
    H54     H    0.81010   0.24453   0.92115   1.000
    H55     H    0.80885   0.74337   0.92010   1.000
    H56     H    0.43041   0.47282   0.82016   1.000
    H57     H    0.43234   0.97343   0.82065   1.000
    H58     H    0.93291   0.47099   0.81654   1.000
    H59     H    0.93246   0.97385   0.82159   1.000
    H60     H    0.00312   0.03058   0.87729   1.000
    H61     H    0.00221   0.52749   0.87306   1.000
    H62     H    0.50400   0.02923   0.87597   1.000
    H63     H    0.50178   0.52899   0.87528   1.000
    H64     H    0.14904   0.33275   0.69598   1.000
    H65     H    0.15259   0.83151   0.69380   1.000
    H66     H    0.64846   0.33218   0.69537   1.000
    H67     H    0.64811   0.83150   0.69417   1.000
    C68     C    0.57984   0.70078   0.23498   1.000
    C69     C    0.09104   0.15691   0.34715   1.000
    C70     C    0.09143   0.65628   0.34474   1.000
    C71     C    0.59284   0.15612   0.34643   1.000
    H72     H    0.38460   0.10872   0.59400   1.000
    H73     H    0.38232   0.60820   0.59322   1.000
    H74     H    0.88653   0.10655   0.59282   1.000
    H75     H    0.88524   0.60850   0.59187   1.000
    H76     H    0.27135   0.06840   0.06038   1.000
    H77     H    0.27401   0.56691   0.05897   1.000
    H78     H    0.77121   0.06681   0.05758   1.000
    H79     H    0.77137   0.56699   0.05673   1.000
    H80     H    0.30569   0.98588   0.05046   1.000
    H81     H    0.31419   0.48724   0.05259   1.000
    H82     H    0.80539   0.98407   0.04720   1.000
    H83     H    0.80535   0.48422   0.04633   1.000
    H84     H    0.01103   0.26903   0.16929   1.000
    H85     H    0.01124   0.76872   0.16670   1.000
    H86     H    0.51501   0.27159   0.17108   1.000
    H87     H    0.51703   0.77330   0.17232   1.000
    H88     H    0.06036   0.21675   0.11866   1.000
    H89     H    0.06169   0.71656   0.11602   1.000
    H90     H    0.56208   0.21827   0.11879   1.000
    H91     H    0.56354   0.71994   0.11941   1.000
    H92     H    0.30224   0.42151   0.30378   1.000
    H93     H    0.30599   0.92432   0.30812   1.000
    H94     H    0.80458   0.42119   0.30280   1.000
    H95     H    0.80650   0.92200   0.30488   1.000
    H96     H    0.08616   0.14665   0.40559   1.000
    H97     H    0.08726   0.64666   0.40360   1.000
    H98     H    0.58802   0.14564   0.40480   1.000
    H99     H    0.58868   0.64519   0.40429   1.000
    N100    N    0.17615   0.04272   0.79880   1.000
    N101    N    0.17865   0.54483   0.80046   1.000
    N102    N    0.67661   0.04070   0.79649   1.000
    N103    N    0.67489   0.54090   0.79500   1.000
    N104    N    0.19266   0.47156   0.90745   1.000
    C105    C    0.28957   0.26149   0.15570   1.000
    C106    C    0.28728   0.76568   0.16061   1.000
    C107    C    0.78890   0.25995   0.15320   1.000
    C108    C    0.79019   0.76039   0.15346   1.000
    C109    C    0.33718   0.20833   0.25989   1.000
    C110    C    0.33924   0.70755   0.25900   1.000
    C111    C    0.83569   0.20745   0.25809   1.000
    C112    C    0.83732   0.70766   0.25800   1.000
    C113    C    0.03595   0.45407   0.23766   1.000
    C114    C    0.03798   0.95464   0.23729   1.000
    C115    C    0.53931   0.45234   0.23630   1.000
    C116    C    0.53951   0.95367   0.23789   1.000
    C117    C    0.08069   0.40434   0.34442   1.000
    C118    C    0.08170   0.90568   0.34485   1.000
    C119    C    0.58253   0.40522   0.34529   1.000
    C120    C    0.58353   0.90524   0.34580   1.000
    C121    C    0.47397   0.21862   0.48480   1.000
    C122    C    0.47383   0.71848   0.48461   1.000
    C123    C    0.97233   0.21836   0.48464   1.000
    C124    C    0.97457   0.71900   0.48436   1.000
    C125    C    0.20885   0.48997   0.84067   1.000
    C126    C    0.20425   0.98647   0.83770   1.000
    C127    C    0.70318   0.48484   0.83411   1.000
    C128    C    0.70412   0.98410   0.83500   1.000
    C129    C    0.20971   0.04412   0.73939   1.000
    C130    C    0.20707   0.54279   0.73671   1.000
    C131    C    0.71076   0.04231   0.73759   1.000
    C132    C    0.70899   0.54265   0.73605   1.000
    C133    C    0.42359   0.30494   0.76326   1.000
    C134    C    0.42298   0.80436   0.76456   1.000
    C135    C    0.92416   0.30475   0.76310   1.000
    C136    C    0.92553   0.80338   0.76437   1.000
    C137    C    0.40572   0.34555   0.64920   1.000
    C138    C    0.40598   0.84615   0.65134   1.000
    C139    C    0.90660   0.34535   0.64914   1.000
    C140    C    0.90901   0.84526   0.65117   1.000
    C141    C    0.23242   0.03552   0.51437   1.000
    C142    C    0.23116   0.53368   0.51126   1.000
    C143    C    0.73459   0.03361   0.51309   1.000
    C144    C    0.73320   0.53341   0.51132   1.000
    C145    C    0.21483   0.23667   0.83710   1.000
    C146    C    0.21399   0.73690   0.83777   1.000
    C147    C    0.71543   0.23492   0.83496   1.000
    C148    C    0.71423   0.73401   0.83387   1.000
    C149    C    0.16085   0.29487   0.73968   1.000
    C150    C    0.16318   0.79389   0.73789   1.000
    C151    C    0.66070   0.29390   0.73859   1.000
    C152    C    0.66007   0.79318   0.73736   1.000
    C153    C    0.46118   0.05094   0.76131   1.000
    C154    C    0.45881   0.55042   0.76052   1.000
    C155    C    0.96138   0.05113   0.76197   1.000
    C156    C    0.96181   0.54916   0.75817   1.000
    C157    C    0.41882   0.09724   0.65155   1.000
    C158    C    0.41651   0.59674   0.65079   1.000
    C159    C    0.92007   0.09592   0.65104   1.000
    C160    C    0.91943   0.59649   0.64920   1.000
    C161    C    0.02573   0.28236   0.51202   1.000
    C162    C    0.02696   0.78375   0.51170   1.000
    C163    C    0.52592   0.28366   0.51249   1.000
    C164    C    0.52529   0.78384   0.51262   1.000
    C165    C    0.28860   0.01234   0.15703   1.000
    C166    C    0.29065   0.51181   0.15561   1.000
    C167    C    0.78841   0.01042   0.15399   1.000
    C168    C    0.78804   0.51031   0.15200   1.000
    C169    C    0.29105   0.45809   0.25860   1.000
    C170    C    0.29327   0.96035   0.26239   1.000
    C171    C    0.79214   0.45756   0.25749   1.000
    C172    C    0.79356   0.95812   0.25926   1.000
    C173    C    0.07622   0.19962   0.23476   1.000
    C174    C    0.07564   0.69838   0.23176   1.000
    C175    C    0.57840   0.19982   0.23467   1.000
    C176    C    0.59367   0.65610   0.34610   1.000
    C177    C    0.26598   0.46682   0.48284   1.000
    C178    C    0.26673   0.96835   0.48586   1.000
    C179    C    0.76833   0.46678   0.48279   1.000
    C180    C    0.76945   0.96676   0.48471   1.000
    N181    N    0.35286   0.29529   0.19424   1.000
    N182    N    0.35236   0.79732   0.19636   1.000
    N183    N    0.85173   0.29423   0.19239   1.000
    N184    N    0.85297   0.79478   0.19264   1.000
    N185    N    0.38304   0.26097   0.26208   1.000
    N186    N    0.38539   0.75960   0.26044   1.000
    N187    N    0.88132   0.26041   0.26076   1.000
    N188    N    0.88281   0.76076   0.26080   1.000
    N189    N    0.27799   0.20641   0.19551   1.000
    N190    N    0.27740   0.70867   0.19829   1.000
    N191    N    0.77717   0.20490   0.19294   1.000
    N192    N    0.77866   0.70516   0.19307   1.000
    N193    N    0.24178   0.27945   0.08793   1.000
    N194    N    0.23694   0.78894   0.09828   1.000
    N195    N    0.74152   0.27748   0.08488   1.000
    N196    N    0.74260   0.77783   0.08522   1.000
    N197    N    0.49220   0.40070   0.23818   1.000
    N198    N    0.49245   0.90188   0.23953   1.000
    N199    N    0.98945   0.40161   0.23837   1.000
    N200    N    0.99135   0.90217   0.23782   1.000
    N201    N    0.01889   0.36959   0.30771   1.000
    N202    N    0.02016   0.87066   0.30770   1.000
    N203    N    0.52073   0.37036   0.30891   1.000
    N204    N    0.52150   0.87072   0.30960   1.000
    N205    N    0.09412   0.45752   0.30343   1.000
    N206    N    0.09555   0.95865   0.30378   1.000
    N207    N    0.59680   0.45697   0.30284   1.000
    N208    N    0.59750   0.95755   0.30392   1.000
    N209    N    0.02300   0.49904   0.17961   1.000
    N210    N    0.02567   0.99902   0.17862   1.000
    N211    N    0.52742   0.49527   0.17628   1.000
    N212    N    0.52709   0.99733   0.17859   1.000
    N213    N    0.25401   0.45622   0.80334   1.000
    N214    N    0.25357   0.95561   0.80419   1.000
    N215    N    0.75301   0.45438   0.80111   1.000
    N216    N    0.75368   0.95323   0.80193   1.000
    N217    N    0.25179   0.49038   0.73534   1.000
    N218    N    0.25605   0.99302   0.73987   1.000
    N219    N    0.75578   0.49190   0.73694   1.000
    N220    N    0.75694   0.99104   0.73817   1.000
    N221    N    0.18276   0.96277   0.89881   1.000
    N222    N    0.68143   0.46088   0.89495   1.000
    N223    N    0.68193   0.96009   0.89560   1.000
    N224    N    0.37513   0.35607   0.76117   1.000
    N225    N    0.37556   0.85634   0.76330   1.000
    N226    N    0.87592   0.35612   0.76101   1.000
    N227    N    0.87705   0.85458   0.76228   1.000
    N228    N    0.36374   0.38170   0.68670   1.000
    N229    N    0.36469   0.88270   0.68936   1.000
    N230    N    0.86470   0.38168   0.68655   1.000
    N231    N    0.86659   0.88099   0.68830   1.000
    N232    N    0.44412   0.29696   0.69398   1.000
    N233    N    0.44342   0.79658   0.69521   1.000
    N234    N    0.94475   0.29667   0.69386   1.000
    N235    N    0.94685   0.79618   0.69550   1.000
    N236    N    0.44532   0.26551   0.82582   1.000
    N237    N    0.44375   0.76400   0.82641   1.000
    N238    N    0.94560   0.26521   0.82555   1.000
    N239    N    0.94651   0.76340   0.82647   1.000
    N240    N    0.14881   0.20577   0.80393   1.000
    N241    N    0.14886   0.70538   0.80189   1.000
    N242    N    0.64924   0.20420   0.80226   1.000
    N243    N    0.64786   0.70368   0.80101   1.000
    N244    N    0.11455   0.24356   0.74014   1.000
    N245    N    0.11667   0.74229   0.73679   1.000
    N246    N    0.61444   0.24260   0.73919   1.000
    N247    N    0.61347   0.74213   0.73788   1.000
    N248    N    0.22385   0.29331   0.79867   1.000
    N249    N    0.22450   0.79315   0.79930   1.000
    N250    N    0.72414   0.29183   0.79674   1.000
    N251    N    0.72337   0.79081   0.79564   1.000
    N252    N    0.26644   0.21258   0.89760   1.000
    N253    N    0.26377   0.71416   0.90081   1.000
    N254    N    0.76748   0.21047   0.89474   1.000
    N255    N    0.76603   0.70948   0.89375   1.000
    N256    N    0.00745   0.10418   0.76121   1.000
    N257    N    0.00845   0.60154   0.75754   1.000
    N258    N    0.50772   0.10352   0.76030   1.000
    N259    N    0.50531   0.60309   0.75960   1.000
    N260    N    0.47977   0.13301   0.68880   1.000
    N261    N    0.47739   0.63261   0.68810   1.000
    N262    N    0.98028   0.13263   0.68889   1.000
    N263    N    0.98057   0.63194   0.68680   1.000
    N264    N    0.40456   0.04548   0.69388   1.000
    N265    N    0.40221   0.54485   0.69302   1.000
    N266    N    0.90568   0.04445   0.69368   1.000
    N267    N    0.90507   0.54428   0.69093   1.000
    N268    N    0.47278   0.00816   0.82116   1.000
    N269    N    0.47058   0.50779   0.82054   1.000
    N270    N    0.97264   0.00898   0.82240   1.000
    N271    N    0.97356   0.50573   0.81766   1.000
    N272    N    0.24490   0.04638   0.19589   1.000
    N273    N    0.24526   0.54549   0.19270   1.000
    N274    N    0.74524   0.04460   0.19348   1.000
    N275    N    0.74493   0.54466   0.19222   1.000
    N276    N    0.24880   0.01291   0.26451   1.000
    N277    N    0.24652   0.51070   0.26002   1.000
    N278    N    0.74949   0.01095   0.26208   1.000
    N279    N    0.74848   0.51067   0.26041   1.000
    N280    N    0.32022   0.45642   0.19540   1.000
    N281    N    0.32000   0.95781   0.19735   1.000
    N282    N    0.81859   0.45506   0.19227   1.000
    N283    N    0.81966   0.95555   0.19370   1.000
    N284    N    0.30230   0.02962   0.08836   1.000
    N285    N    0.30748   0.53050   0.08930   1.000
    N286    N    0.80193   0.02782   0.08530   1.000
    N287    N    0.80205   0.52792   0.08443   1.000
    N288    N    0.12579   0.14960   0.23791   1.000
    N289    N    0.12395   0.64696   0.23398   1.000
    N290    N    0.62690   0.14890   0.23677   1.000
    N291    N    0.62782   0.64949   0.23649   1.000
    N292    N    0.13501   0.12225   0.31104   1.000
    N293    N    0.13395   0.62035   0.30778   1.000
    N294    N    0.63594   0.12091   0.30950   1.000
    N295    N    0.63640   0.62083   0.30876   1.000
    N296    N    0.05318   0.20586   0.30251   1.000
    N297    N    0.05399   0.70566   0.30044   1.000
    N298    N    0.55574   0.20603   0.30267   1.000
    N299    N    0.55720   0.70664   0.30300   1.000
    N300    N    0.05567   0.23974   0.17241   1.000
    N301    N    0.05508   0.73837   0.16960   1.000
    N302    N    0.55853   0.24090   0.17310   1.000
    N303    N    0.56039   0.74246   0.17393   1.000
    O304    O    0.44987   0.20246   0.41009   1.000
    O305    O    0.45046   0.70213   0.40988   1.000
    O306    O    0.94701   0.20284   0.40997   1.000
    O307    O    0.94976   0.70294   0.40971   1.000
    O308    O    0.45974   0.18630   0.53921   1.000
    O309    O    0.45925   0.68614   0.53885   1.000
    O310    O    0.95833   0.18623   0.53930   1.000
    O311    O    0.96075   0.68671   0.53900   1.000
    O312    O    0.24680   0.05210   0.58915   1.000
    O313    O    0.24482   0.54991   0.58605   1.000
    O314    O    0.74836   0.04993   0.58783   1.000
    O315    O    0.74704   0.54973   0.58614   1.000
    O316    O    0.19274   0.06909   0.46050   1.000
    O317    O    0.19177   0.56736   0.45734   1.000
    O318    O    0.69501   0.06726   0.45917   1.000
    O319    O    0.69337   0.56688   0.45752   1.000
    O320    O    0.05173   0.29741   0.58674   1.000
    O321    O    0.05192   0.79964   0.58636   1.000
    O322    O    0.55036   0.29959   0.58725   1.000
    O323    O    0.54884   0.80006   0.58740   1.000
    O324    O    0.03922   0.31503   0.45750   1.000
    O325    O    0.04062   0.81614   0.45700   1.000
    O326    O    0.53979   0.31626   0.45810   1.000
    O327    O    0.53967   0.81636   0.45845   1.000
    O328    O    0.25194   0.45034   0.40809   1.000
    O329    O    0.25234   0.95173   0.41113   1.000
    O330    O    0.75432   0.45044   0.40804   1.000
    O331    O    0.75536   0.95020   0.40998   1.000
    O332    O    0.30575   0.43340   0.53678   1.000
    O333    O    0.30654   0.93486   0.53973   1.000
    O334    O    0.80826   0.43345   0.53670   1.000
    O335    O    0.80931   0.93346   0.53875   1.000
loop_
    _geom_bond_atom_site_label_1
    _geom_bond_atom_site_label_2
    _geom_bond_distance
    _geom_bond_site_symmetry_2
    _ccdc_geom_bond_type
    H83    N287      1.03135      .   S
    H6     N195      1.03131      .   S
    H82    N286      1.03263  1_565   S
    H7     N196      1.03088      .   S
    H4     N193      1.03099      .   S
    H80    N284      1.03022  1_565   S
    H81    N285      1.02816      .   S
    H79    N287      1.03029      .   S
    H2     N195      1.03002      .   S
    H3     N196      1.03002      .   S
    H78    N286      1.02979      .   S
    H77    N285      1.03525      .   S
    H0     N193      1.03146      .   S
    H76    N284      1.03037      .   S
    H1     N194      1.03059      .   S
    H5     N194      1.01874      .   S
    N287   C168      1.34833      .   S
    N195   C107      1.36080      .   S
    N196   C108      1.36095      .   S
    N286   C167      1.36150      .   S
    N193   C105      1.36024      .   S
    N284   C165      1.36192      .   S
    N285   C166      1.35891      .   S
    N194   C106      1.35704      .   S
    H89    N301      1.02506      .   S
    H88    N300      1.02218      .   S
    H90    N302      1.02148      .   S
    H91    N303      1.02167      .   S
    H12    N211      1.02147      .   S
    H15    N210      1.02049  1_655   S
    H13    N212      1.02122      .   S
    H14    N209      1.02021  1_655   S
    C168   N275      1.35385      .   S
    C168   N282      1.37403      .   S
    C107   N183      1.34556      .   S
    C107   N191      1.36758      .   S
    C108   N184      1.34581      .   S
    C108   N192      1.36790      .   S
    C167   N274      1.34520      .   S
    C167   N283      1.36745  1_545   S
    C166   N273      1.34769      .   S
    C166   N280      1.36688      .   S
    C105   N181      1.34585      .   S
    C105   N189      1.36808      .   S
    C165   N272      1.34494      .   S
    C165   N281      1.36793  1_545   S
    C106   N182      1.34616      .   S
    C106   N190      1.36707      .   S
    H85    N301      1.01667      .   S
    H84    N300      1.01720      .   S
    N301   C174      1.36075      .   S
    H86    N302      1.01745      .   S
    H87    N303      1.01751      .   S
    N300   C173      1.36469      .   S
    N302   C175      1.36528      .   S
    N303   C68       1.36544      .   S
    H11    N211      1.01777      .   S
    N211   C115      1.36559      .   S
    H10    N212      1.01809  1_545   S
    H8     N210      1.01843  1_545   S
    N212   C116      1.36522      .   S
    N210   C114      1.36641      .   S
    N209   H9        1.01818      .   S
    N209   C113      1.36594      .   S
    N275   N279      1.39597      .   S
    N282   C171      1.35958      .   S
    N183   N187      1.39675      .   S
    N184   N188      1.39692      .   S
    N273   N277      1.39960      .   S
    N191   C111      1.36015      .   S
    N192   C112      1.35962      .   S
    N274   N278      1.39639      .   S
    N283   C172      1.36112      .   S
    N181   N185      1.39687      .   S
    N280   C169      1.35984      .   S
    N189   C109      1.36048      .   S
    N272   N276      1.39600      .   S
    N182   N186      1.39676      .   S
    N281   C170      1.35988      .   S
    N190   C110      1.36071      .   S
    C174   N289      1.35161      .   S
    C174   N297      1.36296      .   S
    N289   N293      1.39507      .   S
    C175   N290      1.34742      .   S
    C175   N298      1.36203      .   S
    C173   N288      1.34749      .   S
    C173   N296      1.36188      .   S
    C68    N291      1.34673      .   S
    C68    N299      1.36209      .   S
    C115   N197      1.34617      .   S
    C115   N207      1.36224      .   S
    N291   N295      1.39226      .   S
    N290   N294      1.39240      .   S
    C114   N200      1.34567  1_455   S
    C114   N206      1.36283      .   S
    C113   N199      1.34477  1_455   S
    C113   N205      1.36211      .   S
    N200   N202      1.39158  1_655   S
    C116   N198      1.34650      .   S
    C116   N208      1.36260      .   S
    N288   N292      1.39259      .   S
    N197   N203      1.39122      .   S
    N199   N201      1.39104  1_655   S
    N198   N204      1.39152      .   S
    C171   N279      1.32695      .   S
    C171   H94       1.08375      .   S
    C112   N188      1.32692      .   S
    C112   H19       1.08572      .   S
    C111   N187      1.32702      .   S
    C111   H18       1.08465      .   S
    C169   N277      1.32700      .   S
    C169   H92       1.08462      .   S
    C110   N186      1.32512      .   S
    C110   H17       1.08476      .   S
    C172   N278      1.32754  1_565   S
    C172   H95       1.08460      .   S
    C109   N185      1.32718      .   S
    C109   H16       1.08452      .   S
    C170   N276      1.32722  1_565   S
    C170   H93       1.08448      .   S
    N297   C70       1.36310      .   S
    N296   C69       1.36297      .   S
    N298   C71       1.36367      .   S
    N207   C119      1.36294      .   S
    N299   C176      1.36290      .   S
    N205   C117      1.36257      .   S
    N206   C118      1.36287      .   S
    N208   C120      1.36281      .   S
    N202   C118      1.32575      .   S
    N201   C117      1.32573      .   S
    N293   C70       1.32427      .   S
    N295   C176      1.32522      .   S
    N203   C119      1.32558      .   S
    N294   C71       1.32562      .   S
    N204   C120      1.32540      .   S
    N292   C69       1.32491      .   S
    C117   H20       1.08328      .   S
    C70    H97       1.08286      .   S
    C118   H21       1.08317      .   S
    C119   H22       1.08316      .   S
    C120   H23       1.08328      .   S
    C176   H99       1.08331      .   S
    C71    H98       1.08307      .   S
    C69    H96       1.08348      .   S
    O330   C179      1.26416      .   S
    O328   C177      1.26452      .   S
    O307   C124      1.26505      .   S
    O305   C122      1.26475      .   S
    O306   C123      1.26495      .   S
    O331   C180      1.26433      .   S
    O304   C121      1.26500      .   S
    O329   C178      1.26418      .   S
    O325   C162      1.26916      .   S
    O317   C142      1.26882      .   S
    O324   C161      1.26823      .   S
    O319   C144      1.26849      .   S
    O326   C163      1.26836      .   S
    O327   C164      1.26848      .   S
    O318   C143      1.26991      .   S
    O316   C141      1.26928      .   S
    C179   C144      1.54892      .   S
    C179   O334      1.26894      .   S
    C177   C142      1.54864      .   S
    C177   O332      1.26902      .   S
    C124   C162      1.54789  1_655   S
    C124   O311      1.26845      .   S
    C122   C164      1.54766      .   S
    C122   O309      1.26913      .   S
    C123   C161      1.54787  1_655   S
    C123   O310      1.26845      .   S
    C180   C143      1.54881  1_565   S
    C180   O335      1.26940      .   S
    C121   C163      1.54801      .   S
    C121   O308      1.26858      .   S
    C178   C141      1.54893  1_565   S
    C178   O333      1.26928      .   S
    C142   O313      1.26496      .   S
    C144   O315      1.26549      .   S
    C162   O321      1.26504      .   S
    C161   O320      1.26600      .   S
    C163   O322      1.26576      .   S
    C164   O323      1.26544      .   S
    C143   O314      1.26423      .   S
    C141   O312      1.26488      .   S
    H46    C139      1.08415      .   S
    H44    C137      1.08223      .   S
    H75    C160      1.08313      .   S
    H45    C138      1.08343      .   S
    H47    C140      1.08350      .   S
    H74    C159      1.08324      .   S
    H73    C158      1.08324      .   S
    H72    C157      1.08321      .   S
    C139   N230      1.32377      .   S
    C139   N234      1.36174      .   S
    C160   N263      1.32536      .   S
    C160   N267      1.36222      .   S
    C137   N228      1.32424      .   S
    C137   N232      1.36284      .   S
    C158   N261      1.32444      .   S
    C158   N265      1.36266      .   S
    C159   N262      1.32460      .   S
    C159   N266      1.36173      .   S
    C140   N231      1.32277      .   S
    C140   N235      1.36190      .   S
    C138   N229      1.32370      .   S
    C138   N233      1.36212      .   S
    C157   N260      1.32435      .   S
    C157   N264      1.36166      .   S
    N230   N226      1.39426      .   S
    N228   N224      1.39462      .   S
    N263   N257      1.39004  1_655   S
    N261   N259      1.39261      .   S
    N231   N227      1.39530      .   S
    N260   N258      1.39243      .   S
    N262   N256      1.39266  1_655   S
    N229   N225      1.39342      .   S
    N267   C156      1.36166      .   S
    H41    C130      1.08497      .   S
    H43    C132      1.08436      .   S
    N265   C154      1.36284      .   S
    N266   C155      1.36210      .   S
    H65    C150      1.08524      .   S
    N234   C135      1.36165      .   S
    N264   C153      1.36225      .   S
    H42    C131      1.08439      .   S
    N232   C133      1.36170      .   S
    H67    C152      1.08434      .   S
    N233   C134      1.36189      .   S
    H66    C151      1.08440      .   S
    H40    C129      1.08447      .   S
    N235   C136      1.36263      .   S
    H64    C149      1.08439      .   S
    N217   C130      1.32640      .   S
    N217   N213      1.39954      .   S
    C132   N219      1.32460      .   S
    C132   N103      1.35980      .   S
    C130   N101      1.35926      .   S
    N245   C150      1.32467      .   S
    N245   N241      1.39694      .   S
    N219   N215      1.39963      .   S
    C152   N247      1.32483      .   S
    C152   N251      1.35982      .   S
    C131   N220      1.32478  1_545   S
    C131   N102      1.35948      .   S
    N247   N243      1.39996      .   S
    C150   N249      1.36022      .   S
    N220   N216      1.39931      .   S
    C151   N246      1.32456      .   S
    C151   N250      1.35974      .   S
    N246   N242      1.40054      .   S
    C129   N218      1.32464  1_545   S
    C129   N100      1.35929      .   S
    C149   N244      1.32458      .   S
    C149   N248      1.36046      .   S
    N218   N214      1.39933      .   S
    N244   N240      1.39981      .   S
    N257   C156      1.34488  1_455   S
    C156   N271      1.36520      .   S
    N259   C154      1.34875      .   S
    N258   C153      1.34832      .   S
    C154   N269      1.36176      .   S
    N226   C135      1.35025      .   S
    N224   C133      1.34979      .   S
    N256   C155      1.34797  1_455   S
    C153   N268      1.36171      .   S
    C155   N270      1.36167      .   S
    N227   C136      1.35104      .   S
    C135   N238      1.36049      .   S
    C133   N236      1.36110      .   S
    N225   C134      1.34957      .   S
    C136   N239      1.36034      .   S
    C134   N237      1.36138      .   S
    N103   C127      1.36530      .   S
    N251   C148      1.36578      .   S
    N102   C128      1.36538  1_545   S
    N250   C147      1.36545      .   S
    N248   C145      1.36470      .   S
    N100   C126      1.36583  1_545   S
    N249   C146      1.36629      .   S
    N101   C125      1.36551      .   S
    N243   C148      1.34887      .   S
    N215   C127      1.34801      .   S
    N241   C146      1.34645      .   S
    N216   C128      1.34749      .   S
    N242   C147      1.34858      .   S
    N213   C125      1.34752      .   S
    N240   C145      1.34829      .   S
    N214   C126      1.34807      .   S
    H58    N271      1.01782      .   S
    N271   H61       1.02069  1_655   S
    H56    N269      1.01703      .   S
    N269   H63       1.02368      .   S
    H57    N268      1.01730  1_565   S
    N268   H62       1.02403      .   S
    H59    N270      1.01727  1_565   S
    N270   H60       1.02358  1_655   S
    N238   H34       1.01617      .   S
    N238   H38       1.02502      .   S
    N236   H32       1.01632      .   S
    N236   H36       1.02535      .   S
    N237   H33       1.01644      .   S
    N237   H37       1.02417      .   S
    N239   H35       1.01644      .   S
    N239   H39       1.02503      .   S
    C148   N255      1.35502      .   S
    C127   N222      1.35610      .   S
    C147   N254      1.35571      .   S
    C128   N223      1.35698      .   S
    C145   N252      1.35613      .   S
    C126   N221      1.35561      .   S
    C146   N253      1.35584      .   S
    C125   N104      1.35904      .   S
    N255   H55       1.02037      .   S
    N255   H51       1.03495      .   S
    N254   H54       1.02006      .   S
    N254   H50       1.03395      .   S
    N222   H30       1.02028      .   S
    N222   H26       1.03366      .   S
    N223   H31       1.02031      .   S
    N223   H27       1.03386      .   S
    N252   H52       1.01958      .   S
    N252   H48       1.03480      .   S
    N221   H29       1.01992      .   S
    N221   H25       1.03412      .   S
    N253   H53       1.01866      .   S
    N253   H49       1.03187      .   S
    N104   H24       1.03560      .   S
    N104   H28       1.02691      .   S
