# CIF file generated by openbabel 2.4.90, see http://openbabel.sf.net
data_I
_chemical_name_common ''
_cell_length_a 19.145
_cell_length_b 19.199
_cell_length_c 17.42
_cell_angle_alpha 95.567
_cell_angle_beta 105.607
_cell_angle_gamma 90.234
_space_group_name_H-M_alt 'P 1'
_space_group_name_Hall 'P 1'
loop_
    _symmetry_equiv_pos_as_xyz
    x,y,z
loop_
    _atom_site_label
    _atom_site_type_symbol
    _atom_site_fract_x
    _atom_site_fract_y
    _atom_site_fract_z
    _atom_site_occupancy
    C0      C    0.47397   0.21862   0.48480   1.000
    C1      C    0.47383   0.71848   0.48461   1.000
    C2      C    0.97233   0.21836   0.48464   1.000
    C3      C    0.97457   0.71900   0.48436   1.000
    C4      C    0.23242   0.03552   0.51437   1.000
    C5      C    0.23116   0.53368   0.51126   1.000
    C6      C    0.73459   0.03361   0.51309   1.000
    C7      C    0.73320   0.53341   0.51132   1.000
    C8      C    0.02573   0.28236   0.51202   1.000
    C9      C    0.02696   0.78375   0.51170   1.000
    C10     C    0.52592   0.28366   0.51249   1.000
    C11     C    0.52529   0.78384   0.51262   1.000
    C12     C    0.26598   0.46682   0.48284   1.000
    C13     C    0.26673   0.96835   0.48586   1.000
    C14     C    0.76833   0.46678   0.48279   1.000
    C15     C    0.76945   0.96676   0.48471   1.000
loop_
    _geom_bond_atom_site_label_1
    _geom_bond_atom_site_label_2
    _geom_bond_distance
    _geom_bond_site_symmetry_2
    _ccdc_geom_bond_type
    C14    C7        1.54892      .   S
    C12    C5        1.54864      .   S
    C3     C9        1.54789  1_655   S
    C1     C11       1.54766      .   S
    C2     C8        1.54787  1_655   S
    C15    C6        1.54881  1_565   S
    C0     C10       1.54801      .   S
    C13    C4        1.54893  1_565   S
