# CIF file generated by openbabel 2.4.90, see http://openbabel.sf.net
data_I
_chemical_name_common ''
_cell_length_a 19.145
_cell_length_b 19.199
_cell_length_c 17.42
_cell_angle_alpha 95.567
_cell_angle_beta 105.607
_cell_angle_gamma 90.234
_space_group_name_H-M_alt 'P 1'
_space_group_name_Hall 'P 1'
loop_
    _symmetry_equiv_pos_as_xyz
    x,y,z
loop_
    _atom_site_label
    _atom_site_type_symbol
    _atom_site_fract_x
    _atom_site_fract_y
    _atom_site_fract_z
    _atom_site_occupancy
    Zr0     Zr   0.39041   0.38559   0.16958   1.000
    Zr1     Zr   0.39030   0.88745   0.17220   1.000
    Zr2     Zr   0.88878   0.38451   0.16725   1.000
    Zr3     Zr   0.89008   0.88543   0.16788   1.000
    Zr4     Zr   0.48688   0.27519   0.34049   1.000
    Zr5     Zr   0.48815   0.77513   0.34060   1.000
    Zr6     Zr   0.98454   0.27507   0.34013   1.000
    Zr7     Zr   0.98651   0.77549   0.33970   1.000
    Zr8     Zr   0.30442   0.36686   0.82733   1.000
    Zr9     Zr   0.30458   0.86697   0.82938   1.000
    Zr10    Zr   0.80421   0.36601   0.82616   1.000
    Zr11    Zr   0.80428   0.86414   0.82614   1.000
    Zr12    Zr   0.31440   0.47568   0.65410   1.000
    Zr13    Zr   0.31666   0.97741   0.65707   1.000
    Zr14    Zr   0.81690   0.47621   0.65403   1.000
    Zr15    Zr   0.81842   0.97539   0.65637   1.000
    Zr16    Zr   0.11019   0.11616   0.82725   1.000
    Zr17    Zr   0.10978   0.61636   0.82688   1.000
    Zr18    Zr   0.61096   0.11428   0.82570   1.000
    Zr19    Zr   0.60877   0.61406   0.82390   1.000
    Zr20    Zr   0.01276   0.22722   0.65672   1.000
    Zr21    Zr   0.01432   0.72723   0.65640   1.000
    Zr22    Zr   0.51233   0.22758   0.65670   1.000
    Zr23    Zr   0.51093   0.72736   0.65656   1.000
    Zr24    Zr   0.19472   0.13591   0.16982   1.000
    Zr25    Zr   0.19609   0.63577   0.16947   1.000
    Zr26    Zr   0.69446   0.13370   0.16716   1.000
    Zr27    Zr   0.69533   0.63452   0.16679   1.000
    Zr28    Zr   0.18396   0.02732   0.34314   1.000
    Zr29    Zr   0.18279   0.52539   0.34000   1.000
    Zr30    Zr   0.68603   0.02586   0.34200   1.000
    Zr31    Zr   0.68497   0.52544   0.34004   1.000
    N32     N    0.85897   0.87042   0.99779   1.000
    O33     O    0.84858   0.86316   0.93804   1.000
    O34     O    0.87995   0.87512   0.05655   1.000
    N35     N    0.35826   0.87308   0.00098   1.000
    O36     O    0.34839   0.86645   0.94132   1.000
    O37     O    0.37945   0.87785   0.06014   1.000
    N38     N    0.14092   0.12193   0.99999   1.000
    O39     O    0.14920   0.12626   0.05873   1.000
    O40     O    0.12150   0.11520   0.93991   1.000
    N41     N    0.14076   0.63102   0.99645   1.000
    O42     O    0.15125   0.63698   0.05676   1.000
    O43     O    0.11966   0.62605   0.93793   1.000
    N44     N    0.85893   0.37118   0.99754   1.000
    O45     O    0.87952   0.37528   0.05626   1.000
    O46     O    0.84868   0.36459   0.93783   1.000
    N47     N    0.36103   0.37187   0.99987   1.000
    O48     O    0.35023   0.36584   0.93967   1.000
    O49     O    0.38163   0.37621   0.05851   1.000
    N50     N    0.64098   0.62062   0.99726   1.000
    O51     O    0.62117   0.61360   0.93706   1.000
    O52     O    0.64945   0.62500   0.05595   1.000
    N53     N    0.64099   0.11958   0.99757   1.000
    O54     O    0.64920   0.12383   0.05625   1.000
    O55     O    0.62185   0.11272   0.93774   1.000
    C56     C    0.75077   0.50009   0.49705   1.000
    C57     C    0.24857   0.50025   0.49705   1.000
    C58     C    0.75202   0.00018   0.49890   1.000
    C59     C    0.49995   0.25114   0.49864   1.000
    C60     C    0.24958   0.00194   0.50011   1.000
    C61     C    0.00077   0.75137   0.49803   1.000
    C62     C    0.49956   0.75116   0.49861   1.000
    C63     C    0.99903   0.25036   0.49833   1.000
    C64     C    0.95218   0.06092   0.74121   1.000
    O65     O    0.97435   0.12042   0.70701   1.000
    O66     O    0.00550   0.08554   0.76772   1.000
    O67     O    0.90712   0.03542   0.70812   1.000
    C68     C    0.04615   0.44328   0.25738   1.000
    O69     O    0.99263   0.41817   0.23009   1.000
    O70     O    0.09230   0.46737   0.28955   1.000
    O71     O    0.02393   0.38281   0.29065   1.000
    C72     C    0.29760   0.75276   0.17878   1.000
    O73     O    0.36718   0.76006   0.23965   1.000
    O74     O    0.26717   0.71249   0.18133   1.000
    O75     O    0.33446   0.79757   0.18153   1.000
    C76     C    0.54948   0.94276   0.25761   1.000
    O77     O    0.52715   0.88284   0.29135   1.000
    O78     O    0.59563   0.96723   0.29028   1.000
    O79     O    0.49543   0.91871   0.23174   1.000
    C80     C    0.20397   0.24976   0.81909   1.000
    O81     O    0.16673   0.20536   0.81734   1.000
    O82     O    0.23405   0.28992   0.81605   1.000
    O83     O    0.13381   0.24257   0.75876   1.000
    C84     C    0.57927   0.18980   0.25531   1.000
    O85     O    0.61998   0.16555   0.22864   1.000
    O86     O    0.55029   0.21520   0.28845   1.000
    O87     O    0.62013   0.13159   0.29053   1.000
    C88     C    0.70519   0.49794   0.81598   1.000
    O89     O    0.74576   0.49100   0.75573   1.000
    O90     O    0.67351   0.53771   0.81271   1.000
    O91     O    0.74190   0.45407   0.81481   1.000
    C92     C    0.42166   0.31419   0.74186   1.000
    O93     O    0.38072   0.33783   0.76805   1.000
    O94     O    0.38037   0.37144   0.70613   1.000
    O95     O    0.44994   0.28823   0.70860   1.000
    C96     C    0.20611   0.99949   0.81947   1.000
    O97     O    0.17464   0.03946   0.81625   1.000
    O98     O    0.24623   0.99235   0.75897   1.000
    O99     O    0.24259   0.95539   0.81813   1.000
    C100    C    0.21120   0.50281   0.82188   1.000
    O101    O    0.17771   0.54170   0.81778   1.000
    O102    O    0.24521   0.45717   0.81861   1.000
    O103    O    0.24715   0.49292   0.75830   1.000
    C104    C    0.07714   0.68866   0.25274   1.000
    O105    O    0.11858   0.66501   0.22723   1.000
    O106    O    0.04869   0.71462   0.28640   1.000
    O107    O    0.11775   0.63076   0.28831   1.000
    C108    C    0.45175   0.06108   0.74085   1.000
    O109    O    0.40618   0.03626   0.70816   1.000
    O110    O    0.47390   0.12069   0.70680   1.000
    O111    O    0.50555   0.08499   0.76692   1.000
    C112    C    0.44948   0.56061   0.74014   1.000
    O113    O    0.40389   0.53544   0.70685   1.000
    O114    O    0.47182   0.62030   0.70623   1.000
    O115    O    0.50326   0.58459   0.76594   1.000
    C116    C    0.07716   0.18960   0.25548   1.000
    O117    O    0.11871   0.16618   0.22967   1.000
    O118    O    0.04801   0.21503   0.28840   1.000
    O119    O    0.11832   0.13219   0.29128   1.000
    C120    C    0.58051   0.69053   0.25548   1.000
    O121    O    0.55159   0.71571   0.28864   1.000
    O122    O    0.62060   0.63183   0.28994   1.000
    O123    O    0.62104   0.66626   0.22856   1.000
    C124    C    0.79987   0.24737   0.17221   1.000
    O125    O    0.76784   0.20834   0.17613   1.000
    O126    O    0.83506   0.29337   0.17602   1.000
    O127    O    0.86640   0.25755   0.23633   1.000
    C128    C    0.42116   0.81370   0.74332   1.000
    O129    O    0.38061   0.83768   0.76983   1.000
    O130    O    0.38092   0.87188   0.70827   1.000
    O131    O    0.44917   0.78784   0.70960   1.000
    C132    C    0.04800   0.94373   0.25698   1.000
    O133    O    0.09388   0.96836   0.29022   1.000
    O134    O    0.99436   0.91877   0.22992   1.000
    O135    O    0.02567   0.88340   0.29034   1.000
    C136    C    0.92378   0.81288   0.74324   1.000
    O137    O    0.88222   0.83612   0.76872   1.000
    O138    O    0.88314   0.87054   0.70779   1.000
    O139    O    0.95218   0.78729   0.70959   1.000
    C140    C    0.95214   0.55957   0.73797   1.000
    O141    O    0.00563   0.58426   0.76509   1.000
    O142    O    0.97479   0.61958   0.70479   1.000
    O143    O    0.90656   0.53491   0.70523   1.000
    C144    C    0.20396   0.74953   0.81915   1.000
    O145    O    0.16664   0.70520   0.81677   1.000
    O146    O    0.23425   0.78980   0.81675   1.000
    O147    O    0.13473   0.74215   0.75787   1.000
    C148    C    0.80119   0.74770   0.17237   1.000
    O149    O    0.76909   0.70877   0.17615   1.000
    O150    O    0.83636   0.79391   0.17631   1.000
    O151    O    0.86793   0.75792   0.23631   1.000
    C152    C    0.70442   0.24824   0.81718   1.000
    O153    O    0.73430   0.28858   0.81431   1.000
    O154    O    0.63391   0.24166   0.75756   1.000
    O155    O    0.66726   0.20374   0.81558   1.000
    C156    C    0.92220   0.31390   0.74168   1.000
    O157    O    0.88113   0.33748   0.76763   1.000
    O158    O    0.88150   0.37142   0.70598   1.000
    O159    O    0.95048   0.28792   0.70848   1.000
    C160    C    0.28796   0.49874   0.17411   1.000
    O161    O    0.25131   0.50839   0.23706   1.000
    O162    O    0.32164   0.45987   0.17830   1.000
    O163    O    0.25432   0.54468   0.17760   1.000
    C164    C    0.30077   0.24868   0.17447   1.000
    O165    O    0.26856   0.20992   0.17857   1.000
    O166    O    0.33620   0.29456   0.17819   1.000
    O167    O    0.36787   0.25838   0.23788   1.000
    C168    C    0.78617   0.49762   0.17163   1.000
    O169    O    0.75145   0.50784   0.23593   1.000
    O170    O    0.81993   0.45871   0.17570   1.000
    O171    O    0.75315   0.54360   0.17557   1.000
    C172    C    0.70336   0.74742   0.81605   1.000
    O173    O    0.73359   0.78745   0.81347   1.000
    O174    O    0.63278   0.74108   0.75664   1.000
    O175    O    0.66584   0.70314   0.81425   1.000
    C176    C    0.54922   0.44162   0.25627   1.000
    O177    O    0.52651   0.38220   0.29048   1.000
    O178    O    0.59505   0.46641   0.28885   1.000
    O179    O    0.49526   0.41739   0.23007   1.000
    C180    C    0.77804   0.95014   0.47781   1.000
    O181    O    0.74937   0.96909   0.42690   1.000
    O182    O    0.76939   0.96681   0.48481   1.000
    O183    O    0.79595   0.95228   0.53769   1.000
    C184    C    0.70625   0.99728   0.81703   1.000
    O185    O    0.74697   0.99025   0.75715   1.000
    O186    O    0.74261   0.95298   0.81553   1.000
    O187    O    0.67502   0.03738   0.81406   1.000
    C188    C    0.03889   0.29827   0.51875   1.000
    O189    O    0.03557   0.28029   0.57024   1.000
    O190    O    0.02539   0.29666   0.45878   1.000
    O191    O    0.02564   0.28231   0.51196   1.000
    C192    C    0.03983   0.79984   0.51835   1.000
    O193    O    0.03648   0.78164   0.56987   1.000
    O194    O    0.02685   0.78370   0.51161   1.000
    O195    O    0.02670   0.79783   0.45835   1.000
    C196    C    0.78682   0.99782   0.17305   1.000
    O197    O    0.82085   0.95915   0.17692   1.000
    O198    O    0.75229   0.00811   0.23755   1.000
    O199    O    0.75334   0.04348   0.17669   1.000
    C200    C    0.46119   0.20246   0.47803   1.000
    O201    O    0.47407   0.21867   0.48488   1.000
    O202    O    0.47361   0.20470   0.53799   1.000
    O203    O    0.46478   0.22064   0.42666   1.000
    C204    C    0.53869   0.29984   0.51928   1.000
    O205    O    0.53502   0.28171   0.57063   1.000
    O206    O    0.52601   0.29778   0.45929   1.000
    O207    O    0.52581   0.28362   0.51242   1.000
    C208    C    0.22399   0.05224   0.52134   1.000
    O209    O    0.20617   0.05022   0.46158   1.000
    O210    O    0.25286   0.03349   0.57222   1.000
    O211    O    0.23250   0.03548   0.51429   1.000
    C212    C    0.28677   0.99978   0.17605   1.000
    O213    O    0.32096   0.96121   0.18041   1.000
    O214    O    0.25157   0.00995   0.23994   1.000
    O215    O    0.25329   0.04546   0.17945   1.000
    C216    C    0.46118   0.70225   0.47778   1.000
    O217    O    0.47394   0.71854   0.48470   1.000
    O218    O    0.47314   0.70450   0.53774   1.000
    O219    O    0.46524   0.72044   0.42651   1.000
    C220    C    0.95922   0.20248   0.47797   1.000
    O221    O    0.97238   0.20460   0.53799   1.000
    O222    O    0.97245   0.21842   0.48473   1.000
    O223    O    0.96250   0.22072   0.42651   1.000
    C224    C    0.96170   0.70288   0.47769   1.000
    O225    O    0.97462   0.70493   0.53769   1.000
    O226    O    0.97468   0.71904   0.48444   1.000
    O227    O    0.96492   0.72105   0.42620   1.000
    C228    C    0.27456   0.45019   0.47590   1.000
    O229    O    0.26592   0.46686   0.48292   1.000
    O230    O    0.29232   0.45237   0.53567   1.000
    O231    O    0.24596   0.46902   0.42497   1.000
    C232    C    0.53793   0.80009   0.51949   1.000
    O233    O    0.52518   0.78379   0.51255   1.000
    O234    O    0.53391   0.78190   0.57073   1.000
    O235    O    0.52592   0.79792   0.45951   1.000
    C236    C    0.27521   0.95165   0.47891   1.000
    O237    O    0.26668   0.96840   0.48595   1.000
    O238    O    0.24668   0.97058   0.42802   1.000
    O239    O    0.29340   0.95389   0.53865   1.000
    C240    C    0.72454   0.55001   0.51833   1.000
    O241    O    0.73326   0.53338   0.51126   1.000
    O242    O    0.70685   0.54808   0.45855   1.000
    O243    O    0.75325   0.53149   0.56921   1.000
    C244    C    0.77697   0.45022   0.47584   1.000
    O245    O    0.74831   0.46908   0.42494   1.000
    O246    O    0.76826   0.46683   0.48288   1.000
    O247    O    0.79478   0.45253   0.53560   1.000
    C248    C    0.22258   0.55032   0.51822   1.000
    O249    O    0.20493   0.54835   0.45844   1.000
    O250    O    0.23123   0.53364   0.51119   1.000
    O251    O    0.25110   0.53156   0.56915   1.000
    C252    C    0.72598   0.05027   0.52003   1.000
    O253    O    0.70825   0.04842   0.46031   1.000
    O254    O    0.75469   0.03147   0.57106   1.000
    O255    O    0.73464   0.03358   0.51301   1.000
loop_
    _geom_bond_atom_site_label_1
    _geom_bond_atom_site_label_2
    _geom_bond_distance
    _geom_bond_site_symmetry_2
    _ccdc_geom_bond_type
    N32    O33       1.00122      .   S
    Zr11   O33       1.90714      .   S
    N32    O34       0.98889  1_556   S
    Zr3    O34       1.88696      .   S
    N35    O36       1.00018  1_554   S
    Zr9    O36       1.90527      .   S
    N35    O37       0.99571      .   S
    Zr1    O37       1.89724      .   S
    N38    O39       0.98745  1_556   S
    Zr24   O39       1.88692      .   S
    N38    O40       1.00717      .   S
    Zr16   O40       1.91756      .   S
    N41    O42       1.00996  1_556   S
    Zr25   O42       1.92217      .   S
    N41    O43       0.98524      .   S
    Zr17   O43       1.88307      .   S
    N44    O45       0.98748  1_556   S
    Zr2    O45       1.88405      .   S
    N44    O46       1.00041      .   S
    Zr10   O46       1.90508      .   S
    N47    O48       1.00783      .   S
    Zr8    O48       1.91917      .   S
    N47    O49       0.98603  1_556   S
    Zr0    O49       1.88716      .   S
    N50    O51       1.00979      .   S
    Zr19   O51       1.92197      .   S
    N50    O52       0.98629  1_556   S
    Zr27   O52       1.88430      .   S
    N53    O54       0.98665  1_556   S
    Zr26   O54       1.88324      .   S
    N53    O55       1.00259      .   S
    Zr18   O55       1.90955      .   S
    C64    O65       1.45069      .   S
    Zr20   O65       2.48904  1_455   S
    C64    O66       1.08577  1_655   S
    Zr16   O66       2.04737      .   S
    C64    O67       0.99523      .   S
    Zr15   O67       1.99576  1_565   S
    C68    O69       1.09433  1_455   S
    Zr2    O69       2.06160      .   S
    C68    O70       0.99429      .   S
    Zr29   O70       1.99741      .   S
    C68    O71       1.45741      .   S
    Zr6    O71       2.50465  1_655   S
    C72    O73       1.45888      .   S
    Zr5    O73       2.49882      .   S
    C72    O74       0.97771      .   S
    Zr25   O74       1.95895      .   S
    C72    O75       1.09977      .   S
    Zr1    O75       2.06872      .   S
    C76    O77       1.45395      .   S
    Zr5    O77       2.49927      .   S
    C76    O78       0.99967      .   S
    Zr30   O78       2.00572  1_545   S
    C76    O79       1.09174      .   S
    Zr1    O79       2.05745      .   S
    C80    O81       1.10178      .   S
    Zr16   O81       2.06817      .   S
    C80    O82       0.97463      .   S
    Zr8    O82       1.95456      .   S
    C80    O83       1.46234      .   S
    Zr20   O83       2.50875      .   S
    C84    O85       1.09349      .   S
    Zr26   O85       2.06302      .   S
    C84    O86       0.99942      .   S
    Zr4    O86       2.00577      .   S
    C84    O87       1.45568      .   S
    Zr30   O87       2.50637      .   S
    C88    O89       1.46121      .   S
    Zr14   O89       2.50565      .   S
    C88    O90       0.97347      .   S
    Zr19   O90       1.95246      .   S
    C88    O91       1.10141      .   S
    Zr10   O91       2.06751      .   S
    C92    O93       1.08805      .   S
    Zr8    O93       2.05364      .   S
    C92    O94       1.44765      .   S
    Zr12   O94       2.48568      .   S
    C92    O95       0.99610      .   S
    Zr22   O95       1.99698      .   S
    C96    O97       0.97424  1_565   S
    Zr16   O97       1.95323      .   S
    C96    O98       1.45877      .   S
    Zr13   O98       2.49864      .   S
    C96    O99       1.10226      .   S
    Zr9    O99       2.06980      .   S
    C100   O101      0.98155      .   S
    Zr17   O101      1.96284      .   S
    C100   O102      1.09985      .   S
    Zr8    O102      2.07101      .   S
    C100   O103      1.45153      .   S
    Zr12   O103      2.49141      .   S
    C104   O105      1.08927      .   S
    Zr25   O105      2.05683      .   S
    C104   O106      1.00310      .   S
    Zr7    O106      2.01010  1_655   S
    C104   O107      1.45112      .   S
    Zr29   O107      2.49498      .   S
    C108   O109      0.99454      .   S
    Zr13   O109      1.99370  1_565   S
    C108   O110      1.45064      .   S
    Zr22   O110      2.48902      .   S
    C108   O111      1.08707      .   S
    Zr18   O111      2.05054      .   S
    C112   O113      1.00069      .   S
    Zr12   O113      2.00700      .   S
    C112   O114      1.45192      .   S
    Zr23   O114      2.49312      .   S
    C112   O115      1.08679      .   S
    Zr19   O115      2.04991      .   S
    C116   O117      1.09229      .   S
    Zr24   O117      2.06115      .   S
    C116   O118      0.99941      .   S
    Zr6    O118      2.00404  1_655   S
    C116   O119      1.44945      .   S
    Zr28   O119      2.49238      .   S
    C120   O121      0.99696      .   S
    Zr5    O121      1.99964      .   S
    C120   O122      1.45249      .   S
    Zr31   O122      2.49809      .   S
    C120   O123      1.09333      .   S
    Zr27   O123      2.06282      .   S
    C124   O125      0.98530      .   S
    Zr26   O125      1.96805      .   S
    C124   O126      1.09460      .   S
    Zr2    O126      2.06511      .   S
    C124   O127      1.44852      .   S
    Zr6    O127      2.48469      .   S
    C128   O129      1.08731      .   S
    Zr9    O129      2.05368      .   S
    C128   O130      1.44918      .   S
    Zr13   O130      2.48885      .   S
    C128   O131      0.99711      .   S
    Zr23   O131      1.99781      .   S
    C132   O133      1.00005      .   S
    Zr28   O133      2.00792  1_545   S
    C132   O134      1.09470  1_455   S
    Zr3    O134      2.06338      .   S
    C132   O135      1.45680      .   S
    Zr7    O135      2.50470  1_655   S
    C136   O137      1.08797      .   S
    Zr11   O137      2.05470      .   S
    C136   O138      1.44674      .   S
    Zr15   O138      2.48258      .   S
    C136   O139      0.99917      .   S
    Zr21   O139      2.00013  1_455   S
    C140   O141      1.09033  1_655   S
    Zr17   O141      2.05447      .   S
    C140   O142      1.45247      .   S
    Zr21   O142      2.49470  1_455   S
    C140   O143      0.99366      .   S
    Zr14   O143      1.99431      .   S
    C144   O145      1.09949      .   S
    Zr17   O145      2.06681      .   S
    C144   O146      0.97533      .   S
    Zr9    O146      1.95387      .   S
    C144   O147      1.45751      .   S
    Zr21   O147      2.49495      .   S
    C148   O149      0.98402      .   S
    Zr27   O149      1.96674      .   S
    C148   O150      1.09691      .   S
    Zr3    O150      2.06970      .   S
    C148   O151      1.44961      .   S
    Zr7    O151      2.48752      .   S
    C152   O153      0.97403      .   S
    Zr10   O153      1.95438      .   S
    C152   O154      1.46149      .   S
    Zr22   O154      2.50596      .   S
    C152   O155      1.10302      .   S
    Zr18   O155      2.07095      .   S
    C156   O157      1.08724      .   S
    Zr10   O157      2.05300      .   S
    C156   O158      1.44670      .   S
    Zr14   O158      2.48336      .   S
    C156   O159      0.99537      .   S
    Zr20   O159      1.99473  1_455   S
    C160   O161      1.45084      .   S
    Zr29   O161      2.48967      .   S
    C160   O162      0.98339      .   S
    Zr0    O162      1.96761      .   S
    C160   O163      1.10083      .   S
    Zr25   O163      2.07358      .   S
    C164   O165      0.98452      .   S
    Zr24   O165      1.96636      .   S
    C164   O166      1.09579      .   S
    Zr0    O166      2.06740      .   S
    C164   O167      1.44894      .   S
    Zr4    O167      2.48625      .   S
    C168   O169      1.44706      .   S
    Zr31   O169      2.47990      .   S
    C168   O170      0.98512      .   S
    Zr2    O170      1.96648      .   S
    C168   O171      1.09541      .   S
    Zr27   O171      2.06684      .   S
    C172   O173      0.97195      .   S
    Zr11   O173      1.95141      .   S
    C172   O174      1.46070      .   S
    Zr23   O174      2.50363      .   S
    C172   O175      1.10336      .   S
    Zr19   O175      2.07040      .   S
    C176   O177      1.45369      .   S
    Zr4    O177      2.49914      .   S
    C176   O178      0.99743      .   S
    Zr31   O178      2.00124      .   S
    C176   O179      1.09228      .   S
    Zr0    O179      2.05901      .   S
    C180   O181      1.01116      .   S
    Zr30   O181      2.05046  1_545   S
    C180   O182      0.38522      .   S
    C58    O182      0.77242  1_545   S
    C180   O183      1.00311      .   S
    Zr15   O183      1.99956      .   S
    C184   O185      1.45774      .   S
    Zr15   O185      2.49663      .   S
    C184   O186      1.10406      .   S
    Zr11   O186      2.07298      .   S
    C184   O187      0.97359  1_565   S
    Zr18   O187      1.95314      .   S
    C188   O189      1.00906      .   S
    Zr20   O189      2.03625      .   S
    C188   O190      1.00372      .   S
    Zr6    O190      2.00426  1_655   S
    C188   O191      0.38524      .   S
    C63    O191      0.77220  1_655   S
    C192   O193      1.01155      .   S
    Zr21   O193      2.04676      .   S
    C192   O194      0.38499      .   S
    C61    O194      0.77196      .   S
    C192   O195      1.00394      .   S
    Zr7    O195      2.00441  1_655   S
    C196   O197      0.98482      .   S
    Zr3    O197      1.96718      .   S
    C196   O198      1.44773  1_565   S
    Zr30   O198      2.48221      .   S
    C196   O199      1.09515  1_565   S
    Zr26   O199      2.06630      .   S
    C200   O201      0.38502      .   S
    C59    O201      0.77202      .   S
    C200   O202      1.00348      .   S
    Zr22   O202      2.00370      .   S
    C200   O203      1.01043      .   S
    Zr4    O203      2.04255      .   S
    C204   O205      1.01002      .   S
    Zr22   O205      2.04102      .   S
    C204   O206      1.00403      .   S
    Zr4    O206      2.00524      .   S
    C204   O207      0.38511      .   S
    C59    O207      0.77211      .   S
    C208   O209      1.00129      .   S
    Zr28   O209      1.99536      .   S
    C208   O210      1.01024      .   S
    Zr13   O210      2.04548  1_565   S
    C208   O211      0.38548      .   S
    C60    O211      0.77271      .   S
    C212   O213      0.98529      .   S
    Zr1    O213      1.96625      .   S
    C212   O214      1.44671  1_565   S
    Zr28   O214      2.48150      .   S
    C212   O215      1.09475  1_565   S
    Zr24   O215      2.06686      .   S
    C216   O217      0.38492      .   S
    C62    O217      0.77184      .   S
    C216   O218      1.00392      .   S
    Zr23   O218      2.00389      .   S
    C216   O219      1.01159      .   S
    Zr5    O219      2.04660      .   S
    C220   O221      1.00410      .   S
    Zr20   O221      2.00665  1_455   S
    C220   O222      0.38472      .   S
    C63    O222      0.77169      .   S
    C220   O223      1.01049      .   S
    Zr6    O223      2.04302      .   S
    C224   O225      1.00409      .   S
    Zr21   O225      2.00422  1_455   S
    C224   O226      0.38518      .   S
    C61    O226      0.77215  1_455   S
    C224   O227      1.01012      .   S
    Zr7    O227      2.04230      .   S
    C228   O229      0.38540      .   S
    C57    O229      0.77256      .   S
    C228   O230      1.00117      .   S
    Zr12   O230      1.99629      .   S
    C228   O231      1.01002      .   S
    Zr29   O231      2.04521      .   S
    C232   O233      0.38503      .   S
    C62    O233      0.77195      .   S
    C232   O234      1.01096      .   S
    Zr23   O234      2.04424      .   S
    C232   O235      1.00430      .   S
    Zr5    O235      2.00513      .   S
    C236   O237      0.38552      .   S
    C60    O237      0.77275  1_545   S
    C236   O238      1.00989      .   S
    Zr28   O238      2.04507  1_545   S
    C236   O239      1.00127      .   S
    Zr13   O239      1.99519      .   S
    C240   O241      0.38580      .   S
    C56    O241      0.77303      .   S
    C240   O242      1.00147      .   S
    Zr31   O242      1.99641      .   S
    C240   O243      1.00735      .   S
    Zr14   O243      2.03488      .   S
    C244   O245      1.01023      .   S
    Zr31   O245      2.04571      .   S
    C244   O246      0.38519      .   S
    C56    O246      0.77242      .   S
    C244   O247      1.00095      .   S
    Zr14   O247      1.99707      .   S
    C248   O249      1.00138      .   S
    Zr29   O249      1.99563      .   S
    C248   O250      0.38549      .   S
    C57    O250      0.77264      .   S
    C248   O251      1.00888      .   S
    Zr12   O251      2.04039      .   S
    C252   O253      1.00078      .   S
    Zr30   O253      1.99236      .   S
    C252   O254      1.01178      .   S
    Zr15   O254      2.04976  1_565   S
    C252   O255      0.38573      .   S
    C58    O255      0.77294      .   S
