# CIF file generated by openbabel 2.4.90, see http://openbabel.sf.net
data_I
_chemical_name_common ''
_cell_length_a 6.754
_cell_length_b 6.935
_cell_length_c 6.966
_cell_angle_alpha 90
_cell_angle_beta 90.011
_cell_angle_gamma 90.005
_space_group_name_H-M_alt 'P 1'
_space_group_name_Hall 'P 1'
loop_
    _symmetry_equiv_pos_as_xyz
    x,y,z
loop_
    _atom_site_label
    _atom_site_type_symbol
    _atom_site_fract_x
    _atom_site_fract_y
    _atom_site_fract_z
    _atom_site_occupancy
    Ni0     Ni   0.99707   0.50004   0.50013   1.000
    C1      C    0.99788   0.68799   0.31326   1.000
    C2      C    0.99790   0.31206   0.68695   1.000
    C3      C    0.99787   0.68800   0.68696   1.000
    C4      C    0.99791   0.31207   0.31326   1.000
    Fe5     Fe   0.00013   0.00002   0.00006   1.000
    Ts6     Ts   0.99829   0.72752   0.27316   1.000
    Ts7     Ts   0.99830   0.27251   0.72703   1.000
    Ts8     Ts   0.99826   0.72754   0.72704   1.000
    Ts9     Ts   0.99832   0.27254   0.27317   1.000
    Ts10    Ts   0.99978   0.93554   0.06436   1.000
    Ts11    Ts   0.99979   0.06448   0.93576   1.000
    Ts12    Ts   0.99977   0.93555   0.93577   1.000
    Ts13    Ts   0.99980   0.06450   0.06437   1.000
    Ts14    Ts   0.90289   0.00004   0.99982   1.000
    Ts15    Ts   0.09736   0.00003   0.99976   1.000
loop_
    _geom_bond_atom_site_label_1
    _geom_bond_atom_site_label_2
    _geom_bond_distance
    _geom_bond_site_symmetry_2
    _ccdc_geom_bond_type
    C1     Ni0       1.84215      .   S
    C4     Ni0       1.84223      .   S
    Ni0    C2        1.84206      .   S
    Ni0    C3        1.84200      .   S
    C1     Ts6       0.39136      .   S
    C2     Ts7       0.39135      .   S
    C3     Ts8       0.39136      .   S
    C4     Ts9       0.39136      .   S
    Fe5    Ts10      0.63295  1_445   S
    Fe5    Ts11      0.63283  1_454   S
    Fe5    Ts12      0.63277  1_444   S
    Fe5    Ts13      0.63300  1_455   S
    Fe5    Ts14      0.65673  1_454   S
    Fe5    Ts15      0.65670  1_554   S
