# CIF file generated by openbabel 2.4.90, see http://openbabel.sf.net
data_I
_chemical_name_common ''
_cell_length_a 6.754
_cell_length_b 6.935
_cell_length_c 6.966
_cell_angle_alpha 90
_cell_angle_beta 90.011
_cell_angle_gamma 90.005
_space_group_name_H-M_alt 'P 1'
_space_group_name_Hall 'P 1'
loop_
    _symmetry_equiv_pos_as_xyz
    x,y,z
loop_
    _atom_site_label
    _atom_site_type_symbol
    _atom_site_fract_x
    _atom_site_fract_y
    _atom_site_fract_z
    _atom_site_occupancy
    C0      C    0.00013   0.00002   0.00006   1.000
    C1      C    0.99707   0.50004   0.50013   1.000
    C2      C    0.68634   0.70062   0.99954   1.000
    C3      C    0.68648   0.29943   0.99950   1.000
    C4      C    0.31364   0.70062   0.99932   1.000
    C5      C    0.31378   0.29943   0.99922   1.000
    C6      C    0.99788   0.68799   0.31326   1.000
    C7      C    0.99790   0.31206   0.68695   1.000
    C8      C    0.99787   0.68800   0.68696   1.000
    C9      C    0.99791   0.31207   0.31326   1.000
    C10     C    0.60251   0.83431   0.99938   1.000
    C11     C    0.60263   0.16574   0.99936   1.000
    C12     C    0.39749   0.83430   0.99932   1.000
    C13     C    0.39761   0.16574   0.99918   1.000
    C14     C    0.99910   0.80657   0.19297   1.000
    C15     C    0.99911   0.19342   0.80718   1.000
    C16     C    0.99905   0.80663   0.80720   1.000
    C17     C    0.99915   0.19347   0.19299   1.000
    C18     C    0.70842   0.00008   0.99936   1.000
    C19     C    0.29182   0.00007   0.99918   1.000
    O20     O    0.99961   0.90330   0.09651   1.000
    O21     O    0.99964   0.09674   0.09652   1.000
    O22     O    0.99962   0.09672   0.90362   1.000
    O23     O    0.99959   0.90332   0.90363   1.000
    O24     O    0.14597   0.00004   0.99962   1.000
    O25     O    0.85427   0.00005   0.99971   1.000
    O26     O    0.99849   0.74728   0.25311   1.000
    O27     O    0.99853   0.25277   0.25312   1.000
    O28     O    0.99747   0.59402   0.40669   1.000
    O29     O    0.99749   0.40606   0.40669   1.000
    O30     O    0.99749   0.40605   0.59354   1.000
    O31     O    0.99747   0.59402   0.59354   1.000
    O32     O    0.99850   0.25274   0.74706   1.000
    O33     O    0.99846   0.74731   0.74708   1.000
    O34     O    0.34471   0.08291   0.99918   1.000
    O35     O    0.35569   0.23259   0.99920   1.000
    O36     O    0.50012   0.16574   0.99927   1.000
    O37     O    0.34465   0.91719   0.99925   1.000
    O38     O    0.35556   0.76746   0.99932   1.000
    O39     O    0.50000   0.83431   0.99935   1.000
    O40     O    0.65552   0.08291   0.99936   1.000
    O41     O    0.64455   0.23258   0.99943   1.000
    O42     O    0.65546   0.91719   0.99937   1.000
    O43     O    0.64442   0.76746   0.99946   1.000
loop_
    _geom_bond_atom_site_label_1
    _geom_bond_atom_site_label_2
    _geom_bond_distance
    _geom_bond_site_symmetry_2
    _ccdc_geom_bond_type
    C0     O20       0.94943  1_445   S
    C14    O20       0.94943      .   S
    C0     O21       0.94950  1_455   S
    C17    O21       0.94950      .   S
    C0     O22       0.94925  1_454   S
    C15    O22       0.94925      .   S
    C0     O23       0.94915  1_444   S
    C16    O23       0.94915      .   S
    C0     O24       0.98505  1_554   S
    C19    O24       0.98505      .   S
    C0     O25       0.98509  1_454   S
    C18    O25       0.98509      .   S
    C14    O26       0.58703      .   S
    C6     O26       0.58703      .   S
    C17    O27       0.58704      .   S
    C9     O27       0.58704      .   S
    C6     O28       0.92108      .   S
    C1     O28       0.92108      .   S
    C9     O29       0.92112      .   S
    C1     O29       0.92112      .   S
    C1     O30       0.92103      .   S
    C7     O30       0.92103      .   S
    C1     O31       0.92100      .   S
    C8     O31       0.92100      .   S
    C7     O32       0.58703      .   S
    C15    O32       0.58703      .   S
    C8     O33       0.58703      .   S
    C16    O33       0.58703      .   S
    C13    O34       0.67648      .   S
    C19    O34       0.67648      .   S
    C13    O35       0.54319      .   S
    C5     O35       0.54319      .   S
    C13    O36       0.69235      .   S
    C11    O36       0.69235      .   S
    C19    O37       0.67658  1_545   S
    C12    O37       0.67658      .   S
    C12    O38       0.54318      .   S
    C4     O38       0.54318      .   S
    C12    O39       0.69236      .   S
    C10    O39       0.69236      .   S
    C11    O40       0.67647      .   S
    C18    O40       0.67647      .   S
    C11    O41       0.54320      .   S
    C3     O41       0.54320      .   S
    C18    O42       0.67697  1_545   S
    C10    O42       0.67697      .   S
    C10    O43       0.54319      .   S
    C2     O43       0.54319      .   S
