# CIF file generated by openbabel 2.4.90, see http://openbabel.sf.net
data_I
_chemical_name_common ''
_cell_length_a 9.1965
_cell_length_b 12.7
_cell_length_c 13.4963
_cell_angle_alpha 116.348
_cell_angle_beta 97.1405
_cell_angle_gamma 101.028
_space_group_name_H-M_alt 'P 1'
_space_group_name_Hall 'P 1'
loop_
    _symmetry_equiv_pos_as_xyz
    x,y,z
loop_
    _atom_site_label
    _atom_site_type_symbol
    _atom_site_fract_x
    _atom_site_fract_y
    _atom_site_fract_z
    _atom_site_occupancy
    Cd0     Cd   0.60220   0.93992   0.89154   1.000
    Cd1     Cd   0.99698   0.99905   0.99867   1.000
    Cd2     Cd   0.39174   0.05831   0.10583   1.000
    O3      O    0.77807   0.92209   0.92209   1.000
loop_
    _geom_bond_atom_site_label_1
    _geom_bond_atom_site_label_2
    _geom_bond_distance
    _geom_bond_site_symmetry_2
    _ccdc_geom_bond_type
    Cd0    O3        1.70129      .   S
    O3     Cd1       1.97731      .   S
