# CIF file generated by openbabel 2.4.90, see http://openbabel.sf.net
data_I
_chemical_name_common ''
_cell_length_a 9.1965
_cell_length_b 12.7
_cell_length_c 13.4963
_cell_angle_alpha 116.348
_cell_angle_beta 97.1405
_cell_angle_gamma 101.028
_space_group_name_H-M_alt 'P 1'
_space_group_name_Hall 'P 1'
loop_
    _symmetry_equiv_pos_as_xyz
    x,y,z
loop_
    _atom_site_label
    _atom_site_type_symbol
    _atom_site_fract_x
    _atom_site_fract_y
    _atom_site_fract_z
    _atom_site_occupancy
    N0      N    0.22271   0.68344   0.40548   1.000
    N1      N    0.77110   0.30076   0.58251   1.000
    Zr2     Zr   0.79242   0.95369   0.93743   1.000
    O3      O    0.57192   0.88191   0.79580   1.000
    Zr4     Zr   0.39174   0.05831   0.10583   1.000
    O5      O    0.51711   0.11971   0.22217   1.000
    O6      O    0.96718   0.89280   0.06663   1.000
    O7      O    0.34141   0.96706   0.18047   1.000
    O8      O    0.76411   0.05042   0.85302   1.000
loop_
    _geom_bond_atom_site_label_1
    _geom_bond_atom_site_label_2
    _geom_bond_distance
    _geom_bond_site_symmetry_2
    _ccdc_geom_bond_type
    Zr2    O3        2.31936      .   S
    N0     O3        5.03279      .   S
    Zr4    O5        1.58806      .   S
    N1     O5        4.42609      .   S
    N0     O6        6.63473  1_455   S
    Zr2    O6        2.68267  1_556   S
    Zr4    O7        1.87591  1_545   S
    N0     O7        5.69360      .   S
    Zr2    O8        2.04109  1_565   S
    N1     O8        5.80720      .   S
