# CIF file generated by openbabel 2.4.90, see http://openbabel.sf.net
data_I
_chemical_name_common ''
_cell_length_a 9.1965
_cell_length_b 12.7
_cell_length_c 13.4963
_cell_angle_alpha 116.348
_cell_angle_beta 97.1405
_cell_angle_gamma 101.028
_space_group_name_H-M_alt 'P 1'
_space_group_name_Hall 'P 1'
loop_
    _symmetry_equiv_pos_as_xyz
    x,y,z
loop_
    _atom_site_label
    _atom_site_type_symbol
    _atom_site_fract_x
    _atom_site_fract_y
    _atom_site_fract_z
    _atom_site_occupancy
    N0      N    0.22271   0.68344   0.40548   1.000
    N1      N    0.77110   0.30076   0.58251   1.000
    Zr2     Zr   0.79242   0.95369   0.93743   1.000
    O3      O    0.82769   0.06116   0.84913   1.000
    O4      O    0.96427   0.88272   0.05126   1.000
    O5      O    0.97849   0.91761   0.07931   1.000
    O6      O    0.96168   0.88816   0.08469   1.000
    O7      O    0.82509   0.06656   0.88251   1.000
    O8      O    0.74728   0.04989   0.82614   1.000
    O9      O    0.73781   0.01536   0.82162   1.000
    O10     O    0.57192   0.88191   0.79580   1.000
    O11     O    0.74376   0.05260   0.86118   1.000
    Zr12    Zr   0.39174   0.05831   0.10583   1.000
    O13     O    0.34176   0.95170   0.19182   1.000
    O14     O    0.35114   0.99017   0.19636   1.000
    O15     O    0.32749   0.97733   0.17690   1.000
    O16     O    0.34527   0.94902   0.15679   1.000
    O17     O    0.51711   0.11971   0.22217   1.000
loop_
    _geom_bond_atom_site_label_1
    _geom_bond_atom_site_label_2
    _geom_bond_distance
    _geom_bond_site_symmetry_2
    _ccdc_geom_bond_type
    Zr2    O3        2.18151  1_565   S
    N1     O3        5.68667      .   S
    Zr2    O4        2.61544  1_556   S
    N0     O4        6.71755  1_455   S
    Zr2    O5        2.65867  1_556   S
    N0     O5        6.70718  1_455   S
    Zr2    O6        2.87396  1_556   S
    N0     O6        6.40809  1_455   S
    Zr2    O7        1.87838  1_565   S
    N1     O7        6.02009      .   S
    Zr2    O8        2.36411  1_565   S
    N1     O8        5.49742      .   S
    Zr2    O9        2.08583  1_565   S
    N1     O9        5.81801      .   S
    Zr2    O10       2.31936      .   S
    N0     O10       5.03279      .   S
    Zr2    O11       2.02125  1_565   S
    N1     O11       5.88172      .   S
    Zr12   O13       2.16346  1_545   S
    N0     O13       5.40363      .   S
    Zr12   O14       1.81925  1_545   S
    N0     O14       5.77602      .   S
    Zr12   O15       1.76377  1_545   S
    N0     O15       5.82754      .   S
    Zr12   O16       1.80987  1_545   S
    N0     O16       5.78333      .   S
    Zr12   O17       1.58806      .   S
    N1     O17       4.42609      .   S
