# CIF file generated by openbabel 2.4.90, see http://openbabel.sf.net
data_I
_chemical_name_common ''
_cell_length_a 9.1965
_cell_length_b 12.7
_cell_length_c 13.4963
_cell_angle_alpha 116.348
_cell_angle_beta 97.1405
_cell_angle_gamma 101.028
_space_group_name_H-M_alt 'P 1'
_space_group_name_Hall 'P 1'
loop_
    _symmetry_equiv_pos_as_xyz
    x,y,z
loop_
    _atom_site_label
    _atom_site_type_symbol
    _atom_site_fract_x
    _atom_site_fract_y
    _atom_site_fract_z
    _atom_site_occupancy
    Zr0     Zr   0.39174   0.05831   0.10583   1.000
    Zr1     Zr   0.60220   0.93992   0.89154   1.000
    Zr2     Zr   0.99698   0.99905   0.99867   1.000
    Zr3     Zr   0.77807   0.92209   0.92209   1.000
    O4      O    0.69014   0.93101   0.90681   1.000
    O5      O    0.88752   0.96057   0.96038   1.000
    N6      N    0.22271   0.68344   0.40548   1.000
    O7      O    0.31054   0.92203   0.28690   1.000
    O8      O    0.29177   0.84509   0.27781   1.000
    O9      O    0.13094   0.82264   0.23194   1.000
    O10     O    0.35142   0.81013   0.65417   1.000
    O11     O    0.29880   0.83972   0.20774   1.000
    O12     O    0.13613   0.81175   0.16508   1.000
    O13     O    0.16456   0.88154   0.22118   1.000
    O14     O    0.26325   0.89635   0.24797   1.000
    N15     N    0.77110   0.30076   0.58251   1.000
    O16     O    0.68320   0.07704   0.70581   1.000
    O17     O    0.70214   0.14608   0.71484   1.000
    O18     O    0.86297   0.16863   0.76083   1.000
    O19     O    0.64248   0.18111   0.33851   1.000
    O20     O    0.69509   0.15152   0.78493   1.000
    O21     O    0.85776   0.17943   0.82759   1.000
loop_
    _geom_bond_atom_site_label_1
    _geom_bond_atom_site_label_2
    _geom_bond_distance
    _geom_bond_site_symmetry_2
    _ccdc_geom_bond_type
    Zr1    O4        0.85064      .   S
    Zr3    O4        0.85064      .   S
    Zr3    O5        0.98865      .   S
    Zr2    O5        0.98865      .   S
    N6     O7        4.01059      .   S
    Zr0    O7        3.63849  1_545   S
    N6     O8        3.24042      .   S
    Zr0    O8        4.32693  1_545   S
    N6     O9        3.61634      .   S
    Zr2    O9        4.77506  1_656   S
    N6     O10       2.95727      .   S
    Zr1    O10       3.21261      .   S
    N6     O11       4.02317      .   S
    Zr0    O11       3.61975  1_545   S
    N6     O12       4.28526      .   S
    Zr2    O12       4.18712  1_656   S
    N6     O13       4.30592      .   S
    Zr2    O13       4.16273  1_656   S
    N6     O14       4.10889      .   S
    Zr0    O14       3.52755  1_545   S
    N15    O16       3.89211      .   S
    Zr1    O16       3.70300  1_565   S
    N15    O17       3.22024      .   S
    Zr1    O17       4.30733  1_565   S
    N15    O18       3.59765      .   S
    Zr2    O18       4.75707  1_565   S
    N15    O19       2.90780      .   S
    Zr0    O19       3.17611      .   S
    N15    O20       4.01359      .   S
    Zr1    O20       3.58888  1_565   S
    N15    O21       4.27648      .   S
    Zr2    O21       4.15945  1_565   S
