# CIF file generated by openbabel 2.4.90, see http://openbabel.sf.net
data_I
_chemical_name_common ''
_cell_length_a 22.353
_cell_length_b 16.76
_cell_length_c 18.262
_cell_angle_alpha 62.678
_cell_angle_beta 72.41
_cell_angle_gamma 90.054
_space_group_name_H-M_alt 'P 1'
_space_group_name_Hall 'P 1'
loop_
    _symmetry_equiv_pos_as_xyz
    x,y,z
loop_
    _atom_site_label
    _atom_site_type_symbol
    _atom_site_fract_x
    _atom_site_fract_y
    _atom_site_fract_z
    _atom_site_occupancy
    Zr0     Zr   0.29147   0.78932   0.64707   1.000
    Zr1     Zr   0.78974   0.78889   0.64776   1.000
    Zr2     Zr   0.29865   0.46637   0.16006   1.000
    Zr3     Zr   0.79725   0.46581   0.16043   1.000
    Zr4     Zr   0.20847   0.43552   0.35344   1.000
    Zr5     Zr   0.70843   0.43566   0.35355   1.000
    Zr6     Zr   0.20265   0.62603   0.84003   1.000
    Zr7     Zr   0.70095   0.62559   0.84059   1.000
    Zr8     Zr   0.38544   0.28882   0.64780   1.000
    Zr9     Zr   0.88541   0.28868   0.64792   1.000
    Zr10    Zr   0.12031   0.96581   0.16006   1.000
    Zr11    Zr   0.62032   0.96555   0.16020   1.000
    Zr12    Zr   0.11440   0.93598   0.35299   1.000
    Zr13    Zr   0.61440   0.93572   0.35319   1.000
    Zr14    Zr   0.37958   0.12592   0.84090   1.000
    Zr15    Zr   0.87941   0.12589   0.84090   1.000
    N16     N    0.64848   0.30516   0.14919   1.000
    O17     O    0.63470   0.16696   0.15083   1.000
    O18     O    0.62442   0.15120   0.23481   1.000
    O19     O    0.66988   0.44053   0.02380   1.000
    O20     O    0.69969   0.37574   0.17596   1.000
    O21     O    0.67749   0.36820   0.22424   1.000
    N22     N    0.11512   0.00649   0.56198   1.000
    O23     O    0.13248   0.98724   0.46238   1.000
    O24     O    0.01862   0.06666   0.68288   1.000
    O25     O    0.10645   0.95729   0.49240   1.000
    O26     O    0.01924   0.12971   0.60043   1.000
    N27     N    0.38429   0.56821   0.43881   1.000
    O28     O    0.39312   0.44948   0.50842   1.000
    O29     O    0.36712   0.44977   0.53846   1.000
    O30     O    0.48031   0.72958   0.40050   1.000
    O31     O    0.48092   0.74882   0.31806   1.000
    N32     N    0.39625   0.06804   0.43871   1.000
    O33     O    0.31924   0.22962   0.40070   1.000
    O34     O    0.36405   0.94983   0.53813   1.000
    O35     O    0.35292   0.94958   0.50803   1.000
    O36     O    0.35951   0.24909   0.31813   1.000
    N37     N    0.72338   0.95435   0.85173   1.000
    O38     O    0.68149   0.96423   0.97700   1.000
    O39     O    0.79002   0.09214   0.77699   1.000
    O40     O    0.78852   0.05144   0.82524   1.000
    O41     O    0.71069   0.81771   0.85003   1.000
    O42     O    0.74159   0.88604   0.76611   1.000
    N43     N    0.85099   0.45467   0.85133   1.000
    O44     O    0.86487   0.31808   0.84986   1.000
    O45     O    0.87521   0.38621   0.76587   1.000
    O46     O    0.82142   0.59238   0.77653   1.000
    O47     O    0.79923   0.55155   0.82473   1.000
    O48     O    0.82919   0.46443   0.97689   1.000
    N49     N    0.89545   0.06763   0.43904   1.000
    O50     O    0.85859   0.24860   0.31830   1.000
    O51     O    0.81880   0.22949   0.40085   1.000
    O52     O    0.86283   0.94944   0.53864   1.000
    O53     O    0.85180   0.94916   0.50847   1.000
    N54     N    0.60333   0.50640   0.56181   1.000
    O55     O    0.67982   0.62985   0.60022   1.000
    O56     O    0.63987   0.56655   0.68265   1.000
    O57     O    0.63572   0.48745   0.46235   1.000
    O58     O    0.64676   0.45710   0.49254   1.000
    N59     N    0.61520   0.00658   0.56226   1.000
    O60     O    0.60650   0.95722   0.49263   1.000
    O61     O    0.63251   0.98722   0.46259   1.000
    O62     O    0.51876   0.06677   0.68300   1.000
    O63     O    0.51931   0.12982   0.60053   1.000
    N64     N    0.88432   0.56814   0.43875   1.000
    O65     O    0.86711   0.44966   0.53847   1.000
    O66     O    0.89312   0.44938   0.50841   1.000
    O67     O    0.98095   0.74887   0.31795   1.000
    O68     O    0.98033   0.72966   0.40038   1.000
    N69     N    0.10385   0.50661   0.56176   1.000
    O70     O    0.14097   0.56680   0.68235   1.000
    O71     O    0.18082   0.63022   0.59985   1.000
    O72     O    0.13602   0.48751   0.46232   1.000
    O73     O    0.14707   0.45713   0.49249   1.000
    N74     N    0.27633   0.80586   0.14936   1.000
    O75     O    0.21120   0.87622   0.17578   1.000
    O76     O    0.20973   0.86876   0.22401   1.000
    O77     O    0.25738   0.65160   0.23499   1.000
    O78     O    0.31831   0.94117   0.02410   1.000
    O79     O    0.28903   0.66768   0.15090   1.000
    N80     N    0.35151   0.45467   0.85139   1.000
    O81     O    0.33013   0.46463   0.97678   1.000
    O82     O    0.36523   0.31807   0.84992   1.000
    O83     O    0.37550   0.38622   0.76591   1.000
    O84     O    0.32246   0.59267   0.77637   1.000
    O85     O    0.30025   0.55185   0.82461   1.000
    N86     N    0.77629   0.80571   0.14942   1.000
    O87     O    0.81823   0.94107   0.02415   1.000
    O88     O    0.71119   0.87602   0.17589   1.000
    O89     O    0.70971   0.86856   0.22414   1.000
    O90     O    0.78855   0.66737   0.15106   1.000
    O91     O    0.75734   0.65154   0.23505   1.000
    N92     N    0.22370   0.95466   0.85147   1.000
    O93     O    0.29021   0.09240   0.77685   1.000
    O94     O    0.28874   0.05167   0.82513   1.000
    O95     O    0.18164   0.96447   0.97680   1.000
    O96     O    0.21138   0.81807   0.84962   1.000
    O97     O    0.24262   0.88641   0.76567   1.000
    N98     N    0.14879   0.30538   0.14896   1.000
    O99     O    0.17066   0.44080   0.02344   1.000
    O100    O    0.13482   0.16718   0.15067   1.000
    O101    O    0.12456   0.15143   0.23463   1.000
    O102    O    0.20043   0.37602   0.17560   1.000
    O103    O    0.17788   0.36830   0.22395   1.000
loop_
    _geom_bond_atom_site_label_1
    _geom_bond_atom_site_label_2
    _geom_bond_distance
    _geom_bond_site_symmetry_2
    _ccdc_geom_bond_type
    N16    O17       2.32173      .   S
    Zr11   O17       3.31085  1_565   S
    N16    O18       2.27552      .   S
    Zr13   O18       3.21014  1_565   S
    N16    O19       2.27740      .   S
    Zr7    O19       3.21895  1_556   S
    N16    O20       1.95334      .   S
    Zr3    O20       2.51818      .   S
    N16    O21       2.29794      .   S
    Zr5    O21       3.28163      .   S
    N22    O23       1.91705  1_545   S
    Zr12   O23       2.63723      .   S
    N22    O24       3.11671      .   S
    Zr15   O24       4.02562  1_655   S
    N22    O25       1.85530  1_545   S
    Zr12   O25       2.68370      .   S
    N22    O26       3.12754      .   S
    Zr9    O26       4.16752  1_655   S
    N27    O28       1.85599      .   S
    Zr8    O28       2.68376      .   S
    N27    O29       1.91297      .   S
    Zr8    O29       2.64267      .   S
    N27    O30       3.12345      .   S
    Zr13   O30       4.16431      .   S
    N27    O31       3.11017      .   S
    Zr11   O31       4.01883      .   S
    N32    O33       3.12780      .   S
    Zr4    O33       4.16627      .   S
    N32    O34       1.90924  1_545   S
    Zr0    O34       2.63716      .   S
    N32    O35       1.85215  1_545   S
    Zr0    O35       2.67821      .   S
    N32    O36       3.11358      .   S
    Zr2    O36       4.02220      .   S
    N37    O38       2.27833      .   S
    Zr11   O38       3.21967  1_554   S
    N37    O39       2.29916  1_565   S
    Zr9    O39       3.28247      .   S
    N37    O40       1.96197  1_565   S
    Zr15   O40       2.53777      .   S
    N37    O41       2.32283      .   S
    Zr7    O41       3.31302      .   S
    N37    O42       2.27605      .   S
    Zr1    O42       3.21080      .   S
    N43    O44       2.32164      .   S
    Zr15   O44       3.31087      .   S
    N43    O45       2.27592      .   S
    Zr9    O45       3.20926      .   S
    N43    O46       2.29864      .   S
    Zr1    O46       3.28328      .   S
    N43    O47       1.95710      .   S
    Zr7    O47       2.52969      .   S
    N43    O48       2.27834      .   S
    Zr3    O48       3.22028  1_554   S
    N49    O50       3.11506      .   S
    Zr3    O50       4.02609      .   S
    N49    O51       3.12656      .   S
    Zr5    O51       4.16369      .   S
    N49    O52       1.91111  1_545   S
    Zr1    O52       2.64240      .   S
    N49    O53       1.85472  1_545   S
    Zr1    O53       2.68287      .   S
    N54    O55       3.12203      .   S
    Zr1    O55       4.15899      .   S
    N54    O56       3.11192      .   S
    Zr7    O56       4.01995      .   S
    N54    O57       1.91293      .   S
    Zr5    O57       2.64138      .   S
    N54    O58       1.85596      .   S
    Zr5    O58       2.68237      .   S
    N59    O60       1.85842  1_545   S
    Zr13   O60       2.68627      .   S
    N59    O61       1.91946  1_545   S
    Zr13   O61       2.64039      .   S
    N59    O62       3.11455      .   S
    Zr14   O62       4.02291      .   S
    N59    O63       3.12691      .   S
    Zr8    O63       4.16716      .   S
    N64    O65       1.91386      .   S
    Zr9    O65       2.64342      .   S
    N64    O66       1.85642      .   S
    Zr9    O66       2.68502      .   S
    N64    O67       3.11130      .   S
    Zr10   O67       4.02046  1_455   S
    N64    O68       3.12465      .   S
    Zr12   O68       4.16571  1_455   S
    N69    O70       3.11424      .   S
    Zr6    O70       4.02481      .   S
    N69    O71       3.12663      .   S
    Zr0    O71       4.16646      .   S
    N69    O72       1.91370      .   S
    Zr4    O72       2.64238      .   S
    N69    O73       1.85662      .   S
    Zr4    O73       2.68369      .   S
    N74    O75       1.96050      .   S
    Zr10   O75       2.53516      .   S
    N74    O76       2.29828      .   S
    Zr12   O76       3.28086      .   S
    N74    O77       2.27933      .   S
    Zr4    O77       3.21891      .   S
    N74    O78       2.27872      .   S
    Zr14   O78       3.22015  1_546   S
    N74    O79       2.32189      .   S
    Zr2    O79       3.31100      .   S
    N80    O81       2.27789      .   S
    Zr2    O81       3.21953  1_554   S
    N80    O82       2.32153      .   S
    Zr14   O82       3.31026      .   S
    N80    O83       2.27590      .   S
    Zr8    O83       3.21093      .   S
    N80    O84       2.29775      .   S
    Zr0    O84       3.28123      .   S
    N80    O85       1.95332      .   S
    Zr6    O85       2.51795      .   S
    N86    O87       2.27922      .   S
    Zr15   O87       3.22093  1_546   S
    N86    O88       1.95983      .   S
    Zr11   O88       2.53410      .   S
    N86    O89       2.29818      .   S
    Zr13   O89       3.28089      .   S
    N86    O90       2.32251      .   S
    Zr3    O90       3.31208      .   S
    N86    O91       2.27804      .   S
    Zr5    O91       3.21634      .   S
    N92    O93       2.29738  1_565   S
    Zr8    O93       3.27957      .   S
    N92    O94       1.96063  1_565   S
    Zr14   O94       2.53610      .   S
    N92    O95       2.27913      .   S
    Zr10   O95       3.22125  1_554   S
    N92    O96       2.32223      .   S
    Zr6    O96       3.31134      .   S
    N92    O97       2.27776      .   S
    Zr0    O97       3.21562      .   S
    N98    O99       2.27801      .   S
    Zr6    O99       3.22032  1_556   S
    N98    O100      2.32159      .   S
    Zr10   O100      3.31041  1_565   S
    N98    O101      2.27559      .   S
    Zr12   O101      3.20930  1_565   S
    N98    O102      1.95849      .   S
    Zr2    O102      2.53307      .   S
    N98    O103      2.29624      .   S
    Zr4    O103      3.27877      .   S
