# CIF file generated by openbabel 2.4.90, see http://openbabel.sf.net
data_I
_chemical_name_common ''
_cell_length_a 10.009
_cell_length_b 13.154
_cell_length_c 15.547
_cell_angle_alpha 89.998
_cell_angle_beta 89.946
_cell_angle_gamma 89.972
_space_group_name_H-M_alt 'P 1'
_space_group_name_Hall 'P 1'
loop_
    _symmetry_equiv_pos_as_xyz
    x,y,z
loop_
    _atom_site_label
    _atom_site_type_symbol
    _atom_site_fract_x
    _atom_site_fract_y
    _atom_site_fract_z
    _atom_site_occupancy
    Zr0     Zr   0.11034   0.94272   0.30372   1.000
    Zr1     Zr   0.09972   0.25866   0.24793   1.000
    Zr2     Zr   0.40001   0.05837   0.80394   1.000
    Zr3     Zr   0.41059   0.74218   0.74791   1.000
    Zr4     Zr   0.89969   0.44467   0.19991   1.000
    Zr5     Zr   0.90716   0.75965   0.25572   1.000
    Zr6     Zr   0.61074   0.55899   0.69988   1.000
    Zr7     Zr   0.60025   0.24372   0.75579   1.000
    N8      N    0.58934   0.12970   0.28795   1.000
    O9      O    0.38927   0.05722   0.30156   1.000
    O10     O    0.71953   0.25479   0.24670   1.000
    O11     O    0.38419   0.17272   0.26792   1.000
    O12     O    0.80199   0.17861   0.27543   1.000
    N13     N    0.08989   0.37260   0.71622   1.000
    O14     O    0.30247   0.32360   0.72852   1.000
    O15     O    0.88988   0.44489   0.70228   1.000
    O16     O    0.88467   0.32969   0.73613   1.000
    O17     O    0.22010   0.24814   0.75808   1.000
    N18     N    0.80160   0.07072   0.03640   1.000
    O19     O    0.70649   0.14731   0.92683   1.000
    O20     O    0.63286   0.06210   0.94416   1.000
    O21     O    0.84005   0.94376   0.12760   1.000
    O22     O    0.93513   0.01660   0.14248   1.000
    N23     N    0.41911   0.62931   0.21544   1.000
    O24     O    0.28970   0.75363   0.25758   1.000
    O25     O    0.62395   0.67240   0.23555   1.000
    O26     O    0.20602   0.67910   0.22810   1.000
    O27     O    0.61958   0.55754   0.20140   1.000
    N28     N    0.30167   0.43153   0.96719   1.000
    O29     O    0.34114   0.55850   0.87607   1.000
    O30     O    0.13272   0.44030   0.05950   1.000
    O31     O    0.20636   0.35494   0.07683   1.000
    O32     O    0.43539   0.48551   0.86118   1.000
    N33     N    0.92092   0.87292   0.78680   1.000
    O34     O    0.79091   0.74832   0.74526   1.000
    O35     O    0.12047   0.94529   0.80100   1.000
    O36     O    0.12661   0.82975   0.76733   1.000
    O37     O    0.70836   0.82308   0.77484   1.000
    N38     N    0.20851   0.57019   0.46742   1.000
    O39     O    0.30402   0.64626   0.57698   1.000
    O40     O    0.37761   0.56158   0.55965   1.000
    O41     O    0.16833   0.44304   0.37623   1.000
    O42     O    0.07490   0.51741   0.36117   1.000
    N43     N    0.70769   0.93223   0.53642   1.000
    O44     O    0.87699   0.93984   0.44413   1.000
    O45     O    0.66897   0.05944   0.62763   1.000
    O46     O    0.57455   0.98610   0.64246   1.000
    O47     O    0.80182   0.85549   0.42679   1.000
loop_
    _geom_bond_atom_site_label_1
    _geom_bond_atom_site_label_2
    _geom_bond_distance
    _geom_bond_site_symmetry_2
    _ccdc_geom_bond_type
    N8     O9        2.22819      .   S
    Zr0    O9        3.17295  1_565   S
    N8     O10       2.19484      .   S
    Zr4    O10       3.16562      .   S
    N8     O11       2.15259      .   S
    Zr1    O11       3.07888      .   S
    N8     O12       2.23210      .   S
    Zr1    O12       3.18950  1_455   S
    N13    O14       2.23127      .   S
    Zr7    O14       3.18843      .   S
    N13    O15       2.22664  1_455   S
    Zr6    O15       3.17107      .   S
    N13    O16       2.15261  1_455   S
    Zr7    O16       3.07864      .   S
    N13    O17       2.19138      .   S
    Zr2    O17       3.15907      .   S
    N18    O19       2.19668  1_554   S
    Zr7    O19       3.13266      .   S
    N18    O20       2.21962  1_554   S
    Zr2    O20       3.19317      .   S
    N18    O21       2.22432  1_545   S
    Zr5    O21       3.20689      .   S
    N18    O22       2.23960      .   S
    Zr0    O22       3.21089  1_465   S
    N23    O24       2.18576      .   S
    Zr0    O24       3.14919      .   S
    N23    O25       2.15047      .   S
    Zr5    O25       3.07497      .   S
    N23    O26       2.23935      .   S
    Zr5    O26       3.20147  1_655   S
    N23    O27       2.22757      .   S
    Zr4    O27       3.17192      .   S
    N28    O29       2.22525      .   S
    Zr3    O29       3.20782      .   S
    N28    O30       2.21981  1_556   S
    Zr4    O30       3.19352  1_655   S
    N28    O31       2.19729  1_556   S
    Zr1    O31       3.13292      .   S
    N28    O32       2.23800      .   S
    Zr6    O32       3.20875      .   S
    N33    O34       2.19087      .   S
    Zr6    O34       3.15588      .   S
    N33    O35       2.22421  1_655   S
    Zr2    O35       3.16974  1_545   S
    N33    O36       2.15641  1_655   S
    Zr3    O36       3.08096      .   S
    N33    O37       2.23440      .   S
    Zr3    O37       3.19310      .   S
    N38    O39       2.19556      .   S
    Zr3    O39       3.13034      .   S
    N38    O40       2.22206      .   S
    Zr6    O40       3.19519      .   S
    N38    O41       2.22952      .   S
    Zr1    O41       3.21519      .   S
    N38    O42       2.23706      .   S
    Zr4    O42       3.20726  1_655   S
    N43    O44       2.22158      .   S
    Zr0    O44       3.19579  1_455   S
    N43    O45       2.22702  1_565   S
    Zr7    O45       3.21171      .   S
    N43    O46       2.23405      .   S
    Zr2    O46       3.20124  1_545   S
    N43    O47       2.19263      .   S
    Zr5    O47       3.12551      .   S
