# CIF file generated by openbabel 2.4.90, see http://openbabel.sf.net
data_I
_chemical_name_common ''
_cell_length_a 20.196
_cell_length_b 23.101
_cell_length_c 14.88
_cell_angle_alpha 91.161
_cell_angle_beta 90
_cell_angle_gamma 89.958
_space_group_name_H-M_alt 'P 1'
_space_group_name_Hall 'P 1'
loop_
    _symmetry_equiv_pos_as_xyz
    x,y,z
loop_
    _atom_site_label
    _atom_site_type_symbol
    _atom_site_fract_x
    _atom_site_fract_y
    _atom_site_fract_z
    _atom_site_occupancy
    H0      H    0.37873   0.42882   0.37158   1.000
    H1      H    0.37873   0.92881   0.37158   1.000
    H2      H    0.87873   0.42882   0.37158   1.000
    H3      H    0.87874   0.92881   0.37158   1.000
    H4      H    0.02516   0.23713   0.26998   1.000
    H5      H    0.02516   0.73713   0.26998   1.000
    H6      H    0.52516   0.23713   0.26998   1.000
    H7      H    0.52516   0.73713   0.26998   1.000
    H8      H    0.30464   0.28108   0.04446   1.000
    H9      H    0.30465   0.78108   0.04446   1.000
    H10     H    0.80465   0.28108   0.04446   1.000
    H11     H    0.80465   0.78108   0.04446   1.000
    H12     H    0.10449   0.49023   0.23166   1.000
    H13     H    0.10450   0.99023   0.23166   1.000
    H14     H    0.60449   0.49023   0.23166   1.000
    H15     H    0.60450   0.99023   0.23166   1.000
    H16     H    0.08156   0.34466   0.92001   1.000
    H17     H    0.08157   0.84466   0.92001   1.000
    H18     H    0.58157   0.34466   0.92001   1.000
    H19     H    0.58157   0.84466   0.92001   1.000
    H20     H    0.35420   0.50165   0.01268   1.000
    H21     H    0.35421   0.00000   0.01268   1.000
    H22     H    0.85420   0.50165   0.01268   1.000
    H23     H    0.85421   0.00000   0.01268   1.000
    H24     H    0.12880   0.32118   0.12842   1.000
    H25     H    0.12880   0.82118   0.12842   1.000
    H26     H    0.62880   0.32118   0.12842   1.000
    H27     H    0.62881   0.82118   0.12842   1.000
    H28     H    0.27501   0.01289   0.23001   1.000
    H29     H    0.27502   0.51289   0.23001   1.000
    H30     H    0.77502   0.01289   0.23001   1.000
    H31     H    0.77502   0.51289   0.23001   1.000
    H32     H    0.05463   0.46925   0.45520   1.000
    H33     H    0.05463   0.96924   0.45520   1.000
    H34     H    0.55463   0.46925   0.45520   1.000
    H35     H    0.55464   0.96924   0.45520   1.000
    H36     H    0.35450   0.25969   0.26827   1.000
    H37     H    0.35451   0.75969   0.26827   1.000
    H38     H    0.85451   0.25969   0.26827   1.000
    H39     H    0.85451   0.75969   0.26827   1.000
    H40     H    0.33165   0.40525   0.57981   1.000
    H41     H    0.33166   0.90524   0.57981   1.000
    H42     H    0.83166   0.40525   0.57981   1.000
    H43     H    0.83166   0.90524   0.57981   1.000
    H44     H    0.10425   0.24855   0.48758   1.000
    H45     H    0.10425   0.74855   0.48758   1.000
    H46     H    0.60425   0.24855   0.48758   1.000
    H47     H    0.60426   0.74855   0.48758   1.000
    H48     H    0.12128   0.07117   0.62839   1.000
    H49     H    0.12128   0.57117   0.62839   1.000
    H50     H    0.62128   0.07117   0.62839   1.000
    H51     H    0.62129   0.57117   0.62839   1.000
    C52     C    0.98827   0.74029   0.79225   1.000
    C53     C    0.14148   0.21161   0.94870   1.000
    C54     C    0.14149   0.71160   0.94870   1.000
    C55     C    0.64148   0.21160   0.94870   1.000
    H56     H    0.47485   0.26286   0.72999   1.000
    H57     H    0.47486   0.76285   0.72999   1.000
    H58     H    0.97486   0.26286   0.72999   1.000
    H59     H    0.97486   0.76285   0.72999   1.000
    H60     H    0.19536   0.21891   0.95551   1.000
    H61     H    0.19537   0.71891   0.95550   1.000
    H62     H    0.69537   0.21891   0.95550   1.000
    H63     H    0.69537   0.71891   0.95550   1.000
    H64     H    0.39552   0.00976   0.76831   1.000
    H65     H    0.39552   0.50976   0.76831   1.000
    H66     H    0.89552   0.00976   0.76831   1.000
    H67     H    0.89553   0.50976   0.76831   1.000
    H68     H    0.41845   0.15533   0.07990   1.000
    H69     H    0.41845   0.65533   0.07990   1.000
    H70     H    0.91845   0.15533   0.07990   1.000
    H71     H    0.91845   0.65533   0.07990   1.000
    H72     H    0.14581   0.99834   0.98729   1.000
    H73     H    0.14581   0.49834   0.98729   1.000
    H74     H    0.64581   0.99834   0.98729   1.000
    H75     H    0.64582   0.49834   0.98729   1.000
    H76     H    0.37121   0.17881   0.87155   1.000
    H77     H    0.37121   0.67881   0.87155   1.000
    H78     H    0.87121   0.17881   0.87155   1.000
    H79     H    0.87122   0.67881   0.87155   1.000
    H80     H    0.22500   0.48710   0.76996   1.000
    H81     H    0.22500   0.98710   0.76996   1.000
    H82     H    0.72500   0.48710   0.76996   1.000
    H83     H    0.72500   0.98710   0.76996   1.000
    O84     O    0.37562   0.32581   0.11200   1.000
    O85     O    0.37563   0.82581   0.11200   1.000
    O86     O    0.87563   0.32581   0.11200   1.000
    O87     O    0.87563   0.82581   0.11200   1.000
    O88     O    0.39647   0.25993   0.00044   1.000
    H89     H    0.44538   0.03075   0.54477   1.000
    H90     H    0.44539   0.53074   0.54477   1.000
    H91     H    0.94539   0.03075   0.54477   1.000
    H92     H    0.94539   0.53074   0.54477   1.000
    H93     H    0.14550   0.24030   0.73170   1.000
    H94     H    0.14551   0.74030   0.73170   1.000
    H95     H    0.64551   0.24030   0.73170   1.000
    H96     H    0.64551   0.74030   0.73170   1.000
    H97     H    0.16836   0.09475   0.42016   1.000
    H98     H    0.16836   0.59474   0.42016   1.000
    H99     H    0.66836   0.09475   0.42016   1.000
    H100    H    0.66836   0.59474   0.42016   1.000
    H101    H    0.39576   0.25144   0.51239   1.000
    H102    H    0.39576   0.75144   0.51239   1.000
    H103    H    0.89576   0.25144   0.51239   1.000
    H104    H    0.89577   0.75144   0.51239   1.000
    C105    C    0.41939   0.41270   0.32831   1.000
    C106    C    0.41939   0.91270   0.32831   1.000
    C107    C    0.91939   0.41270   0.32831   1.000
    C108    C    0.91940   0.91270   0.32831   1.000
    C109    C    0.01174   0.25970   0.20772   1.000
    C110    C    0.01175   0.75970   0.20772   1.000
    C111    C    0.51175   0.25970   0.20772   1.000
    C112    C    0.51175   0.75970   0.20772   1.000
    C113    C    0.35853   0.28839   0.05127   1.000
    C114    C    0.35853   0.78838   0.05127   1.000
    C115    C    0.85853   0.28839   0.05127   1.000
    C116    C    0.85854   0.78838   0.05127   1.000
    C117    C    0.06823   0.47573   0.18010   1.000
    C118    C    0.06824   0.97572   0.18010   1.000
    C119    C    0.56824   0.47573   0.18010   1.000
    C120    C    0.56824   0.97572   0.18010   1.000
    C121    C    0.05092   0.37160   0.96575   1.000
    C122    C    0.05093   0.87160   0.96575   1.000
    C123    C    0.55093   0.37160   0.96575   1.000
    C124    C    0.55093   0.87160   0.96575   1.000
    C125    C    0.36315   0.46510   0.05758   1.000
    C126    C    0.36315   0.96510   0.05758   1.000
    C127    C    0.86315   0.46510   0.05758   1.000
    C128    C    0.86316   0.96510   0.05758   1.000
    C129    C    0.16944   0.33733   0.17160   1.000
    C130    C    0.16944   0.83733   0.17160   1.000
    C131    C    0.66944   0.33733   0.17160   1.000
    C132    C    0.66945   0.83733   0.17160   1.000
    C133    C    0.26167   0.49031   0.29227   1.000
    C134    C    0.26168   0.99031   0.29227   1.000
    C135    C    0.76168   0.49031   0.29227   1.000
    C136    C    0.76168   0.99031   0.29227   1.000
    C137    C    0.10850   0.46176   0.44855   1.000
    C138    C    0.10851   0.96176   0.44855   1.000
    C139    C    0.60851   0.46176   0.44855   1.000
    C140    C    0.60851   0.96176   0.44855   1.000
    C141    C    0.31824   0.27424   0.31979   1.000
    C142    C    0.31825   0.77423   0.31979   1.000
    C143    C    0.81824   0.27424   0.31979   1.000
    C144    C    0.81825   0.77423   0.31979   1.000
    C145    C    0.30095   0.37833   0.53416   1.000
    C146    C    0.30096   0.87833   0.53416   1.000
    C147    C    0.80096   0.37833   0.53416   1.000
    C148    C    0.80096   0.87833   0.53416   1.000
    C149    C    0.11318   0.28499   0.44250   1.000
    C150    C    0.11318   0.78499   0.44250   1.000
    C151    C    0.61318   0.28499   0.44250   1.000
    C152    C    0.61319   0.78499   0.44250   1.000
    C153    C    0.08062   0.08729   0.67160   1.000
    C154    C    0.08062   0.58729   0.67160   1.000
    C155    C    0.58062   0.08729   0.67160   1.000
    C156    C    0.58062   0.58729   0.67160   1.000
    C157    C    0.48827   0.24029   0.79225   1.000
    C158    C    0.48827   0.74029   0.79225   1.000
    C159    C    0.98827   0.24029   0.79225   1.000
    O160    O    0.24978   0.97987   0.63830   1.000
    O161    O    0.74978   0.47987   0.63830   1.000
    O162    O    0.74979   0.97987   0.63830   1.000
    O163    O    0.37442   0.07574   0.61246   1.000
    O164    O    0.37442   0.57574   0.61246   1.000
    O165    O    0.87442   0.07574   0.61246   1.000
    O166    O    0.87443   0.57574   0.61246   1.000
    O167    O    0.35357   0.00988   0.50052   1.000
    C168    C    0.64149   0.71160   0.94870   1.000
    C169    C    0.43178   0.02427   0.81983   1.000
    C170    C    0.43178   0.52426   0.81983   1.000
    C171    C    0.93178   0.02427   0.81983   1.000
    C172    C    0.93178   0.52426   0.81983   1.000
    C173    C    0.44909   0.12839   0.03420   1.000
    C174    C    0.44909   0.62838   0.03420   1.000
    C175    C    0.94909   0.12839   0.03420   1.000
    C176    C    0.94909   0.62838   0.03420   1.000
    C177    C    0.13686   0.03489   0.94239   1.000
    C178    C    0.13687   0.53489   0.94239   1.000
    C179    C    0.63687   0.03489   0.94239   1.000
    C180    C    0.63687   0.53489   0.94239   1.000
    C181    C    0.33057   0.16266   0.82831   1.000
    C182    C    0.33057   0.66266   0.82831   1.000
    C183    C    0.83057   0.16266   0.82831   1.000
    C184    C    0.83058   0.66266   0.82831   1.000
    C185    C    0.23833   0.00968   0.70770   1.000
    C186    C    0.23834   0.50968   0.70770   1.000
    C187    C    0.73834   0.00968   0.70770   1.000
    C188    C    0.73834   0.50968   0.70770   1.000
    C189    C    0.39150   0.03823   0.55142   1.000
    C190    C    0.39151   0.53823   0.55142   1.000
    C191    C    0.89151   0.03823   0.55142   1.000
    C192    C    0.89151   0.53822   0.55142   1.000
    C193    C    0.18177   0.22576   0.68018   1.000
    C194    C    0.18177   0.72575   0.68018   1.000
    C195    C    0.68177   0.22576   0.68018   1.000
    C196    C    0.68178   0.72575   0.68018   1.000
    C197    C    0.19905   0.12166   0.46580   1.000
    C198    C    0.19906   0.62165   0.46580   1.000
    C199    C    0.69906   0.12166   0.46580   1.000
    C200    C    0.69906   0.62165   0.46581   1.000
    C201    C    0.38683   0.21500   0.55747   1.000
    C202    C    0.38683   0.71499   0.55747   1.000
    C203    C    0.88683   0.21500   0.55747   1.000
    C204    C    0.88684   0.71499   0.55747   1.000
    O205    O    0.40494   0.40132   0.24585   1.000
    O206    O    0.40494   0.90132   0.24585   1.000
    O207    O    0.90494   0.40132   0.24585   1.000
    O208    O    0.90495   0.90132   0.24585   1.000
    O209    O    0.47542   0.40765   0.36437   1.000
    O210    O    0.47542   0.90765   0.36437   1.000
    O211    O    0.97542   0.40765   0.36437   1.000
    O212    O    0.97542   0.90765   0.36437   1.000
    O213    O    0.00922   0.31530   0.21441   1.000
    O214    O    0.00923   0.81529   0.21441   1.000
    O215    O    0.50922   0.31530   0.21441   1.000
    O216    O    0.50923   0.81529   0.21441   1.000
    O217    O    0.00024   0.22989   0.13800   1.000
    O218    O    0.00024   0.72988   0.13800   1.000
    O219    O    0.50024   0.22989   0.13800   1.000
    O220    O    0.50025   0.72988   0.13800   1.000
    O221    O    0.39647   0.75993   0.00044   1.000
    O222    O    0.89647   0.25993   0.00044   1.000
    O223    O    0.89648   0.75993   0.00044   1.000
    O224    O    0.04407   0.42491   0.19117   1.000
    O225    O    0.04407   0.92491   0.19117   1.000
    O226    O    0.54407   0.42491   0.19117   1.000
    O227    O    0.54407   0.92491   0.19117   1.000
    O228    O    0.05544   0.00979   0.11811   1.000
    O229    O    0.05544   0.50979   0.11811   1.000
    O230    O    0.55544   0.00979   0.11811   1.000
    O231    O    0.55545   0.50979   0.11811   1.000
    O232    O    0.01398   0.34295   0.02028   1.000
    O233    O    0.01399   0.84294   0.02028   1.000
    O234    O    0.51399   0.34295   0.02028   1.000
    O235    O    0.51399   0.84294   0.02028   1.000
    O236    O    0.05540   0.42533   0.96110   1.000
    O237    O    0.05541   0.92533   0.96110   1.000
    O238    O    0.55541   0.42533   0.96110   1.000
    O239    O    0.55541   0.92533   0.96110   1.000
    O240    O    0.42385   0.44817   0.06295   1.000
    O241    O    0.42385   0.94817   0.06295   1.000
    O242    O    0.92385   0.44817   0.06295   1.000
    O243    O    0.92386   0.94817   0.06295   1.000
    O244    O    0.31414   0.44463   0.09782   1.000
    O245    O    0.31415   0.94463   0.09782   1.000
    O246    O    0.81415   0.44463   0.09782   1.000
    O247    O    0.81415   0.94463   0.09782   1.000
    O248    O    0.15497   0.34879   0.25409   1.000
    O249    O    0.15498   0.84879   0.25409   1.000
    O250    O    0.65498   0.34879   0.25409   1.000
    O251    O    0.65498   0.84879   0.25409   1.000
    O252    O    0.22545   0.34237   0.13559   1.000
    O253    O    0.22546   0.84236   0.13559   1.000
    O254    O    0.72546   0.34237   0.13559   1.000
    O255    O    0.72546   0.84236   0.13559   1.000
    O256    O    0.25914   0.43472   0.28554   1.000
    O257    O    0.25914   0.93472   0.28554   1.000
    O258    O    0.75914   0.43472   0.28554   1.000
    O259    O    0.75915   0.93472   0.28554   1.000
    O260    O    0.25023   0.02012   0.36165   1.000
    O261    O    0.25023   0.52012   0.36165   1.000
    O262    O    0.75023   0.02012   0.36165   1.000
    O263    O    0.75024   0.52012   0.36165   1.000
    O264    O    0.12559   0.42425   0.38751   1.000
    O265    O    0.12560   0.92425   0.38751   1.000
    O266    O    0.62560   0.42425   0.38751   1.000
    O267    O    0.62560   0.92425   0.38751   1.000
    O268    O    0.14644   0.49012   0.49940   1.000
    O269    O    0.14644   0.99011   0.49940   1.000
    O270    O    0.64644   0.49012   0.49940   1.000
    O271    O    0.64645   0.99011   0.49940   1.000
    O272    O    0.29410   0.32510   0.30879   1.000
    O273    O    0.29411   0.82509   0.30879   1.000
    O274    O    0.79411   0.32510   0.30879   1.000
    O275    O    0.79411   0.82509   0.30879   1.000
    O276    O    0.30544   0.24019   0.38181   1.000
    O277    O    0.30545   0.74018   0.38181   1.000
    O278    O    0.80544   0.24019   0.38181   1.000
    O279    O    0.80545   0.74018   0.38181   1.000
    O280    O    0.26400   0.40704   0.47965   1.000
    O281    O    0.26401   0.90704   0.47965   1.000
    O282    O    0.76401   0.40704   0.47965   1.000
    O283    O    0.76401   0.90704   0.47965   1.000
    O284    O    0.30540   0.32460   0.53880   1.000
    O285    O    0.30541   0.82460   0.53880   1.000
    O286    O    0.80540   0.32460   0.53880   1.000
    O287    O    0.80541   0.82460   0.53880   1.000
    O288    O    0.17386   0.30188   0.43707   1.000
    O289    O    0.17387   0.80188   0.43707   1.000
    O290    O    0.67387   0.30188   0.43707   1.000
    O291    O    0.67387   0.80188   0.43707   1.000
    O292    O    0.06416   0.30543   0.40217   1.000
    O293    O    0.06417   0.80542   0.40217   1.000
    O294    O    0.56416   0.30543   0.40217   1.000
    O295    O    0.56417   0.80542   0.40217   1.000
    O296    O    0.09507   0.09867   0.75412   1.000
    O297    O    0.09507   0.59867   0.75412   1.000
    O298    O    0.59507   0.09867   0.75412   1.000
    O299    O    0.59508   0.59867   0.75412   1.000
    O300    O    0.02459   0.09234   0.63560   1.000
    O301    O    0.02459   0.59234   0.63560   1.000
    O302    O    0.52460   0.09234   0.63560   1.000
    O303    O    0.52460   0.59234   0.63560   1.000
    O304    O    0.49079   0.18469   0.78556   1.000
    O305    O    0.49079   0.68469   0.78556   1.000
    O306    O    0.99079   0.18469   0.78556   1.000
    O307    O    0.99079   0.68469   0.78556   1.000
    O308    O    0.49977   0.27010   0.86158   1.000
    O309    O    0.49978   0.77010   0.86158   1.000
    O310    O    0.99977   0.27010   0.86158   1.000
    O311    O    0.99978   0.77010   0.86158   1.000
    O312    O    0.12439   0.17418   0.88758   1.000
    O313    O    0.12439   0.67418   0.88758   1.000
    O314    O    0.62439   0.17418   0.88758   1.000
    O315    O    0.62439   0.67418   0.88758   1.000
    O316    O    0.10354   0.24006   0.99953   1.000
    O317    O    0.10355   0.74006   0.99953   1.000
    O318    O    0.60354   0.24006   0.99953   1.000
    O319    O    0.60355   0.74006   0.99953   1.000
    O320    O    0.45594   0.07508   0.80880   1.000
    O321    O    0.45595   0.57507   0.80880   1.000
    O322    O    0.95595   0.07508   0.80880   1.000
    O323    O    0.95595   0.57507   0.80880   1.000
    O324    O    0.44457   0.49020   0.88186   1.000
    O325    O    0.44457   0.99020   0.88186   1.000
    O326    O    0.94457   0.49020   0.88186   1.000
    O327    O    0.94458   0.99020   0.88186   1.000
    O328    O    0.48603   0.15705   0.97969   1.000
    O329    O    0.48603   0.65704   0.97969   1.000
    O330    O    0.98603   0.15705   0.97969   1.000
    O331    O    0.98603   0.65704   0.97969   1.000
    O332    O    0.44460   0.07466   0.03887   1.000
    O333    O    0.44461   0.57466   0.03887   1.000
    O334    O    0.94461   0.07466   0.03887   1.000
    O335    O    0.94461   0.57466   0.03887   1.000
    O336    O    0.07616   0.05182   0.93702   1.000
    O337    O    0.07617   0.55182   0.93702   1.000
    O338    O    0.57616   0.05182   0.93702   1.000
    O339    O    0.57617   0.55182   0.93702   1.000
    O340    O    0.18587   0.05536   0.90216   1.000
    O341    O    0.18587   0.55536   0.90216   1.000
    O342    O    0.68587   0.05536   0.90216   1.000
    O343    O    0.68587   0.55536   0.90216   1.000
    O344    O    0.34504   0.15120   0.74588   1.000
    O345    O    0.34504   0.65120   0.74588   1.000
    O346    O    0.84504   0.15120   0.74588   1.000
    O347    O    0.84504   0.65120   0.74588   1.000
    O348    O    0.27455   0.15763   0.86438   1.000
    O349    O    0.27456   0.65762   0.86438   1.000
    O350    O    0.77456   0.15763   0.86438   1.000
    O351    O    0.77456   0.65762   0.86438   1.000
    O352    O    0.24087   0.06527   0.71443   1.000
    O353    O    0.24087   0.56527   0.71443   1.000
    O354    O    0.74087   0.06527   0.71443   1.000
    O355    O    0.74088   0.56527   0.71443   1.000
    O356    O    0.24978   0.47987   0.63830   1.000
    O357    O    0.35358   0.50987   0.50052   1.000
    O358    O    0.85357   0.00988   0.50052   1.000
    O359    O    0.85358   0.50987   0.50052   1.000
    O360    O    0.20591   0.17490   0.69118   1.000
    O361    O    0.20591   0.67489   0.69118   1.000
    O362    O    0.70591   0.17490   0.69118   1.000
    O363    O    0.70591   0.67489   0.69118   1.000
    O364    O    0.19457   0.25980   0.61816   1.000
    O365    O    0.19457   0.75980   0.61816   1.000
    O366    O    0.69457   0.25980   0.61816   1.000
    O367    O    0.69458   0.75980   0.61816   1.000
    O368    O    0.23601   0.09295   0.52032   1.000
    O369    O    0.23601   0.59295   0.52032   1.000
    O370    O    0.73601   0.09295   0.52032   1.000
    O371    O    0.73601   0.59295   0.52032   1.000
    O372    O    0.19461   0.17539   0.46112   1.000
    O373    O    0.19461   0.67538   0.46112   1.000
    O374    O    0.69461   0.17539   0.46112   1.000
    O375    O    0.69462   0.67538   0.46112   1.000
    O376    O    0.32615   0.19811   0.56290   1.000
    O377    O    0.32615   0.69811   0.56290   1.000
    O378    O    0.82615   0.19811   0.56290   1.000
    O379    O    0.82615   0.69811   0.56290   1.000
    O380    O    0.43585   0.19456   0.59780   1.000
    O381    O    0.43585   0.69456   0.59780   1.000
    O382    O    0.93585   0.19456   0.59780   1.000
    O383    O    0.93586   0.69456   0.59780   1.000
loop_
    _geom_bond_atom_site_label_1
    _geom_bond_atom_site_label_2
    _geom_bond_distance
    _geom_bond_site_symmetry_2
    _ccdc_geom_bond_type
    O88    C113      1.25316      .   S
    O221   C114      1.25316      .   S
    O222   C115      1.25315      .   S
    O223   C116      1.25316      .   S
    H20    C125      1.10204      .   S
    H21    C126      1.07269  1_545   S
    H22    C127      1.10203      .   S
    H23    C128      1.07269  1_545   S
    O232   C121      1.29452  1_554   S
    O233   C122      1.29454  1_554   S
    O234   C123      1.29452  1_554   S
    O235   C124      1.29452  1_554   S
    C175   O334      1.24780      .   S
    C175   H70       1.10232      .   S
    C175   O330      1.29433  1_554   S
    C176   O335      1.24778      .   S
    C176   H71       1.10233      .   S
    C176   O331      1.29433  1_554   S
    C174   O333      1.24778      .   S
    C174   H69       1.10233      .   S
    C174   O329      1.29435  1_554   S
    C173   O332      1.24780      .   S
    C173   H68       1.10232      .   S
    C173   O328      1.29432  1_554   S
    H11    C116      1.10572      .   S
    H10    C115      1.10572      .   S
    H9     C114      1.10570      .   S
    H8     C113      1.10572      .   S
    C113   O84       1.28533      .   S
    C114   O85       1.28533      .   S
    C115   O86       1.28533      .   S
    C116   O87       1.28533      .   S
    C125   O240      1.28949      .   S
    C125   O244      1.25450      .   S
    C126   O241      1.28949      .   S
    C126   O245      1.25450      .   S
    C127   O242      1.28949      .   S
    C127   O246      1.25450      .   S
    C128   O243      1.28949      .   S
    C128   O247      1.25450      .   S
    O231   C119      1.25134      .   S
    O228   C118      1.25148  1_545   S
    O230   C120      1.25149  1_545   S
    O229   C117      1.25135      .   S
    H27    C132      1.10288      .   S
    H24    C129      1.10287      .   S
    H25    C130      1.10288      .   S
    H26    C131      1.10287      .   S
    O252   C129      1.25824      .   S
    O253   C130      1.25822      .   S
    O255   C132      1.25822      .   S
    O254   C131      1.25822      .   S
    O219   C111      1.25535      .   S
    O217   C109      1.25535      .   S
    O220   C112      1.25535      .   S
    O218   C110      1.25535      .   S
    C132   O251      1.28406      .   S
    C131   O250      1.28406      .   S
    C130   O249      1.28406      .   S
    C129   O248      1.28406      .   S
    C120   O227      1.28524      .   S
    C120   H15       1.10772      .   S
    C117   O224      1.28527      .   S
    C117   H12       1.10772      .   S
    C118   O225      1.28524      .   S
    C118   H13       1.10772      .   S
    C119   O226      1.28526      .   S
    C119   H14       1.10772      .   S
    C109   O213      1.28713      .   S
    C109   H4        1.10580      .   S
    C110   O214      1.28713      .   S
    C110   H5        1.10580      .   S
    C111   O215      1.28713      .   S
    C111   H6        1.10580      .   S
    C112   O216      1.28713      .   S
    C112   H7        1.10580      .   S
    H30    C136      1.10579  1_545   S
    H31    C135      1.10574      .   S
    H28    C134      1.10579  1_545   S
    H29    C133      1.10574      .   S
    O208   C108      1.28329      .   S
    O207   C107      1.28329      .   S
    O206   C106      1.28329      .   S
    O205   C105      1.28328      .   S
    H38    C143      1.10734      .   S
    H39    C144      1.10734      .   S
    H36    C141      1.10732      .   S
    H37    C142      1.10732      .   S
    O259   C136      1.28709      .   S
    O258   C135      1.28709      .   S
    O257   C134      1.28709      .   S
    O256   C133      1.28709      .   S
    C135   O263      1.25070      .   S
    C133   O261      1.25070      .   S
    C134   O260      1.25083  1_565   S
    C136   O262      1.25083  1_565   S
    O272   C141      1.28519      .   S
    O273   C142      1.28521      .   S
    O274   C143      1.28519      .   S
    O275   C144      1.28520      .   S
    C141   O276      1.25176      .   S
    C142   O277      1.25176      .   S
    C143   O278      1.25176      .   S
    C144   O279      1.25175      .   S
    C105   O209      1.25863      .   S
    C105   H0        1.10338      .   S
    C106   O210      1.25865      .   S
    C106   H1        1.10337      .   S
    C107   O211      1.25863      .   S
    C107   H2        1.10338      .   S
    C108   O212      1.25863      .   S
    C108   H3        1.10337      .   S
    O264   C137      1.28943      .   S
    O265   C138      1.28943      .   S
    O266   C139      1.28942      .   S
    O267   C140      1.28943      .   S
    O294   C151      1.25449      .   S
    O293   C150      1.25450      .   S
    O292   C149      1.25449      .   S
    O295   C152      1.25450      .   S
    H100   C200      1.10263      .   S
    H99    C199      1.10254      .   S
    H98    C198      1.10254      .   S
    H97    C197      1.10255      .   S
    O288   C149      1.28947      .   S
    O291   C152      1.28947      .   S
    O289   C150      1.28949      .   S
    O290   C151      1.28948      .   S
    C152   H47       1.10193      .   S
    C151   H46       1.10194      .   S
    C150   H45       1.10193      .   S
    C149   H44       1.10195      .   S
    C140   H35       1.10575      .   S
    C140   O271      1.25263      .   S
    C139   H34       1.10575      .   S
    C139   O270      1.25263      .   S
    C138   H33       1.10573      .   S
    C138   O269      1.25263      .   S
    C137   H32       1.10575      .   S
    C137   O268      1.25263      .   S
    O372   C197      1.24770      .   S
    O373   C198      1.24772      .   S
    O374   C199      1.24770      .   S
    O375   C200      1.24774      .   S
    C199   O370      1.29458      .   S
    C198   O369      1.29457      .   S
    C197   O368      1.29457      .   S
    C200   O371      1.29447      .   S
    O280   C145      1.29447      .   S
    O281   C146      1.29447      .   S
    O282   C147      1.29447      .   S
    O283   C148      1.29447      .   S
    O167   C189      1.25307      .   S
    O357   C190      1.25308      .   S
    O358   C191      1.25307      .   S
    O359   C192      1.25307      .   S
    H104   C204      1.10192      .   S
    H103   C203      1.10193      .   S
    H102   C202      1.10193      .   S
    H101   C201      1.10192      .   S
    C147   O286      1.24768      .   S
    C147   H42       1.10263      .   S
    C148   O287      1.24768      .   S
    C148   H43       1.10264      .   S
    C146   O285      1.24768      .   S
    C146   H41       1.10263      .   S
    C145   O284      1.24768      .   S
    C145   H40       1.10263      .   S
    H89    C189      1.10575      .   S
    H90    C190      1.10573      .   S
    H91    C191      1.10574      .   S
    H92    C192      1.10575      .   S
    C192   O166      1.28942      .   S
    C189   O163      1.28942      .   S
    C190   O164      1.28941      .   S
    C191   O165      1.28943      .   S
    C202   O377      1.28949      .   S
    C202   O381      1.25449      .   S
    C201   O376      1.28949      .   S
    C201   O380      1.25450      .   S
    C204   O379      1.28949      .   S
    C204   O383      1.25449      .   S
    C203   O378      1.28949      .   S
    C203   O382      1.25450      .   S
    O367   C196      1.25176      .   S
    O366   C195      1.25174      .   S
    O365   C194      1.25176      .   S
    O364   C193      1.25174      .   S
    H51    C156      1.10286      .   S
    H50    C155      1.10286      .   S
    H49    C154      1.10286      .   S
    H48    C153      1.10286      .   S
    O300   C153      1.25825      .   S
    O301   C154      1.25827      .   S
    O302   C155      1.25825      .   S
    O303   C156      1.25825      .   S
    O356   C186      1.25094      .   S
    O162   C187      1.25107  1_565   S
    O161   C188      1.25094      .   S
    O160   C185      1.25107  1_565   S
    C153   O296      1.28414      .   S
    C154   O297      1.28414      .   S
    C155   O298      1.28414      .   S
    C156   O299      1.28414      .   S
    C196   O363      1.28519      .   S
    C196   H96       1.10733      .   S
    C195   O362      1.28521      .   S
    C195   H95       1.10733      .   S
    C194   O361      1.28519      .   S
    C194   H94       1.10733      .   S
    C193   O360      1.28521      .   S
    C193   H93       1.10733      .   S
    C188   O355      1.28709      .   S
    C188   H82       1.10575      .   S
    C186   O353      1.28709      .   S
    C186   H80       1.10574      .   S
    C185   O352      1.28709      .   S
    C185   H81       1.10579  1_545   S
    C187   O354      1.28709      .   S
    C187   H83       1.10579  1_545   S
    H59    C52       1.10580      .   S
    H58    C159      1.10580      .   S
    H56    C157      1.10580      .   S
    H57    C158      1.10580      .   S
    O344   C181      1.28321      .   S
    O346   C183      1.28321      .   S
    O345   C182      1.28321      .   S
    O347   C184      1.28321      .   S
    H64    C169      1.10733      .   S
    H65    C170      1.10733      .   S
    H66    C171      1.10731      .   S
    H67    C172      1.10731      .   S
    O304   C157      1.28716      .   S
    O305   C158      1.28713      .   S
    O306   C159      1.28716      .   S
    O307   C52       1.28713      .   S
    C157   O308      1.25061      .   S
    C52    O311      1.25063      .   S
    C159   O310      1.25061      .   S
    C158   O309      1.25062      .   S
    O323   C172      1.28516      .   S
    O322   C171      1.28518      .   S
    O321   C170      1.28515      .   S
    O320   C169      1.28516      .   S
    C172   O326      1.25179      .   S
    C171   O327      1.25191  1_545   S
    C170   O324      1.25179      .   S
    C169   O325      1.25193  1_545   S
    C183   O350      1.25860      .   S
    C183   H78       1.10339      .   S
    C181   O348      1.25862      .   S
    C181   H76       1.10338      .   S
    C182   O349      1.25860      .   S
    C182   H77       1.10339      .   S
    C184   O351      1.25860      .   S
    C184   H79       1.10339      .   S
    O315   C168      1.28933      .   S
    O314   C55       1.28932      .   S
    O313   C54       1.28934      .   S
    O312   C53       1.28933      .   S
    O342   C179      1.25444      .   S
    O341   C178      1.25443      .   S
    O343   C180      1.25443      .   S
    O340   C177      1.25444      .   S
    H16    C121      1.10269      .   S
    H17    C122      1.10267      .   S
    H18    C123      1.10269      .   S
    H19    C124      1.10268      .   S
    O338   C179      1.28949      .   S
    O339   C180      1.28949      .   S
    O337   C178      1.28949      .   S
    O336   C177      1.28949      .   S
    C180   H75       1.10205      .   S
    C179   H74       1.10203  1_545   S
    C178   H73       1.10205      .   S
    C177   H72       1.10203  1_545   S
    C168   H63       1.10571      .   S
    C168   O319      1.25316      .   S
    C55    H62       1.10571      .   S
    C55    O318      1.25316      .   S
    C54    H61       1.10569      .   S
    C54    O317      1.25316      .   S
    C53    H60       1.10572      .   S
    C53    O316      1.25316      .   S
    O236   C121      1.24776      .   S
    O237   C122      1.24778      .   S
    O238   C123      1.24776      .   S
    O239   C124      1.24778      .   S
