# CIF file generated by openbabel 2.4.90, see http://openbabel.sf.net
data_I
_chemical_name_common ''
_cell_length_a 15.428
_cell_length_b 20.134
_cell_length_c 17.805
_cell_angle_alpha 89.98
_cell_angle_beta 89.987
_cell_angle_gamma 89.995
_space_group_name_H-M_alt 'P 1'
_space_group_name_Hall 'P 1'
loop_
    _symmetry_equiv_pos_as_xyz
    x,y,z
loop_
    _atom_site_label
    _atom_site_type_symbol
    _atom_site_fract_x
    _atom_site_fract_y
    _atom_site_fract_z
    _atom_site_occupancy
    Zr0     Zr   0.20393   0.12496   0.42460   1.000
    Zr1     Zr   0.20393   0.62496   0.42461   1.000
    Zr2     Zr   0.70391   0.12495   0.42460   1.000
    Zr3     Zr   0.70393   0.62496   0.42460   1.000
    Zr4     Zr   0.23321   0.12500   0.76548   1.000
    Zr5     Zr   0.23321   0.62501   0.76548   1.000
    Zr6     Zr   0.73320   0.12500   0.76548   1.000
    Zr7     Zr   0.73320   0.62500   0.76548   1.000
    Zr8     Zr   0.04476   0.37499   0.92459   1.000
    Zr9     Zr   0.04477   0.87500   0.92459   1.000
    Zr10    Zr   0.54474   0.37497   0.92458   1.000
    Zr11    Zr   0.54473   0.87497   0.92450   1.000
    Zr12    Zr   0.01746   0.37500   0.26535   1.000
    Zr13    Zr   0.01745   0.87501   0.26535   1.000
    Zr14    Zr   0.51745   0.37500   0.26535   1.000
    Zr15    Zr   0.51745   0.87500   0.26535   1.000
    Zr16    Zr   0.29608   0.37506   0.57538   1.000
    Zr17    Zr   0.29608   0.87507   0.57539   1.000
    Zr18    Zr   0.79606   0.37506   0.57538   1.000
    Zr19    Zr   0.79605   0.87507   0.57538   1.000
    Zr20    Zr   0.26680   0.37502   0.23450   1.000
    Zr21    Zr   0.26679   0.87503   0.23451   1.000
    Zr22    Zr   0.76678   0.37501   0.23450   1.000
    Zr23    Zr   0.76678   0.87502   0.23450   1.000
    Zr24    Zr   0.45524   0.12505   0.07541   1.000
    Zr25    Zr   0.45523   0.62506   0.07541   1.000
    Zr26    Zr   0.95522   0.12502   0.07539   1.000
    Zr27    Zr   0.95521   0.62502   0.07539   1.000
    Zr28    Zr   0.48260   0.12501   0.73464   1.000
    Zr29    Zr   0.48261   0.62502   0.73460   1.000
    Zr30    Zr   0.98257   0.12502   0.73464   1.000
    Zr31    Zr   0.98258   0.62502   0.73464   1.000
    N32     N    0.37880   0.62502   0.91407   1.000
    O33     O    0.40127   0.62503   0.96814   1.000
    O34     O    0.41202   0.62503   0.85170   1.000
    O35     O    0.32780   0.62501   0.86338   1.000
    N36     N    0.62117   0.87501   0.08590   1.000
    O37     O    0.58798   0.87500   0.14827   1.000
    O38     O    0.59870   0.87500   0.03182   1.000
    O39     O    0.67218   0.87502   0.13658   1.000
    N40     N    0.37185   0.37501   0.41396   1.000
    O41     O    0.42280   0.37500   0.36322   1.000
    O42     O    0.34960   0.37502   0.46806   1.000
    O43     O    0.33825   0.37502   0.35161   1.000
    N44     N    0.84683   0.50052   0.66780   1.000
    O45     O    0.89352   0.54378   0.69025   1.000
    O46     O    0.83232   0.45865   0.63741   1.000
    O47     O    0.80965   0.54314   0.70309   1.000
    N48     N    0.87182   0.37500   0.41395   1.000
    O49     O    0.83823   0.37501   0.35161   1.000
    O50     O    0.84957   0.37502   0.46806   1.000
    O51     O    0.92278   0.37500   0.36323   1.000
    N52     N    0.65318   0.99948   0.33219   1.000
    O53     O    0.60649   0.95624   0.30974   1.000
    O54     O    0.69035   0.95687   0.29690   1.000
    O55     O    0.66767   0.04136   0.36258   1.000
    N56     N    0.62118   0.37501   0.08591   1.000
    O57     O    0.58798   0.37500   0.14827   1.000
    O58     O    0.59870   0.37500   0.03184   1.000
    O59     O    0.67218   0.37501   0.13659   1.000
    N60     N    0.65327   0.25053   0.33228   1.000
    O61     O    0.66775   0.20863   0.36266   1.000
    O62     O    0.60655   0.29377   0.30980   1.000
    O63     O    0.69041   0.29316   0.29696   1.000
    N64     N    0.40335   0.75055   0.16764   1.000
    O65     O    0.44058   0.79316   0.20298   1.000
    O66     O    0.41819   0.70868   0.13728   1.000
    O67     O    0.35641   0.79379   0.19008   1.000
    N68     N    0.90338   0.99947   0.16757   1.000
    O69     O    0.91821   0.04136   0.13722   1.000
    O70     O    0.85641   0.95625   0.19004   1.000
    O71     O    0.94060   0.95685   0.20293   1.000
    N72     N    0.40342   0.49946   0.16753   1.000
    O73     O    0.44062   0.45685   0.20291   1.000
    O74     O    0.35644   0.45624   0.19001   1.000
    O75     O    0.41824   0.54135   0.13718   1.000
    N76     N    0.40335   0.25054   0.16763   1.000
    O77     O    0.41819   0.20867   0.13727   1.000
    O78     O    0.44058   0.29316   0.20297   1.000
    O79     O    0.35641   0.29378   0.19007   1.000
    N80     N    0.09662   0.74948   0.83240   1.000
    O81     O    0.14358   0.70625   0.80994   1.000
    O82     O    0.05941   0.70687   0.79704   1.000
    O83     O    0.08179   0.79135   0.86276   1.000
    N84     N    0.37881   0.12500   0.91407   1.000
    O85     O    0.41202   0.12501   0.85171   1.000
    O86     O    0.40128   0.12501   0.96814   1.000
    O87     O    0.32781   0.12500   0.86339   1.000
    N88     N    0.62819   0.12501   0.58602   1.000
    O89     O    0.66178   0.12500   0.64837   1.000
    O90     O    0.65043   0.12500   0.53192   1.000
    O91     O    0.57724   0.12501   0.63675   1.000
    N92     N    0.15328   0.75055   0.33226   1.000
    O93     O    0.16776   0.70865   0.36266   1.000
    O94     O    0.10656   0.79378   0.30972   1.000
    O95     O    0.19042   0.79317   0.29696   1.000
    N96     N    0.09662   0.24947   0.83239   1.000
    O97     O    0.05941   0.20686   0.79703   1.000
    O98     O    0.14358   0.20625   0.80993   1.000
    O99     O    0.08178   0.29135   0.86275   1.000
    N100    N    0.87879   0.62502   0.91407   1.000
    O101    O    0.91201   0.62502   0.85171   1.000
    O102    O    0.82779   0.62501   0.86339   1.000
    O103    O    0.90126   0.62502   0.96814   1.000
    N104    N    0.37185   0.87502   0.41397   1.000
    O105    O    0.34960   0.87503   0.46808   1.000
    O106    O    0.42280   0.87501   0.36324   1.000
    O107    O    0.33825   0.87503   0.35163   1.000
    N108    N    0.62821   0.62501   0.58602   1.000
    O109    O    0.66179   0.62500   0.64837   1.000
    O110    O    0.65045   0.62500   0.53192   1.000
    O111    O    0.57726   0.62502   0.63674   1.000
    N112    N    0.90339   0.25055   0.16758   1.000
    O113    O    0.91822   0.20867   0.13721   1.000
    O114    O    0.85643   0.29377   0.19004   1.000
    O115    O    0.94061   0.29316   0.20295   1.000
    N116    N    0.15319   0.99949   0.33218   1.000
    O117    O    0.16769   0.04137   0.36258   1.000
    O118    O    0.19036   0.95687   0.29690   1.000
    O119    O    0.10650   0.95624   0.30974   1.000
    N120    N    0.84674   0.74948   0.66769   1.000
    O121    O    0.80960   0.70686   0.70302   1.000
    O122    O    0.89347   0.70625   0.69018   1.000
    O123    O    0.83225   0.79138   0.63731   1.000
    N124    N    0.40343   0.99945   0.16752   1.000
    O125    O    0.44063   0.95684   0.20290   1.000
    O126    O    0.35645   0.95624   0.19000   1.000
    O127    O    0.41825   0.04134   0.13717   1.000
    N128    N    0.34677   0.74950   0.66771   1.000
    O129    O    0.39350   0.70626   0.69018   1.000
    O130    O    0.30962   0.70687   0.70302   1.000
    O131    O    0.33228   0.79140   0.63733   1.000
    N132    N    0.15328   0.25053   0.33229   1.000
    O133    O    0.10656   0.29377   0.30980   1.000
    O134    O    0.19042   0.29316   0.29697   1.000
    O135    O    0.16776   0.20864   0.36267   1.000
    N136    N    0.09663   0.50054   0.83241   1.000
    O137    O    0.05941   0.54317   0.79706   1.000
    O138    O    0.14359   0.54377   0.80995   1.000
    O139    O    0.08179   0.45866   0.86277   1.000
    N140    N    0.84673   0.24948   0.66770   1.000
    O141    O    0.89346   0.20624   0.69018   1.000
    O142    O    0.83224   0.29138   0.63732   1.000
    O143    O    0.80959   0.20686   0.70302   1.000
    N144    N    0.87880   0.12502   0.91407   1.000
    O145    O    0.82780   0.12501   0.86339   1.000
    O146    O    0.90127   0.12503   0.96814   1.000
    O147    O    0.91201   0.12502   0.85171   1.000
    N148    N    0.84682   0.00054   0.66778   1.000
    O149    O    0.83232   0.95866   0.63738   1.000
    O150    O    0.80964   0.04315   0.70307   1.000
    O151    O    0.89352   0.04378   0.69023   1.000
    N152    N    0.12120   0.87501   0.08590   1.000
    O153    O    0.17221   0.87502   0.13659   1.000
    O154    O    0.08800   0.87501   0.14826   1.000
    O155    O    0.09873   0.87501   0.03182   1.000
    N156    N    0.59664   0.74948   0.83235   1.000
    O157    O    0.64359   0.70625   0.80991   1.000
    O158    O    0.55943   0.70686   0.79700   1.000
    O159    O    0.58180   0.79135   0.86269   1.000
    N160    N    0.34677   0.24948   0.66769   1.000
    O161    O    0.30961   0.20686   0.70302   1.000
    O162    O    0.39349   0.20624   0.69018   1.000
    O163    O    0.33227   0.29138   0.63732   1.000
    N164    N    0.90339   0.49947   0.16757   1.000
    O165    O    0.94060   0.45685   0.20293   1.000
    O166    O    0.85642   0.45624   0.19003   1.000
    O167    O    0.91821   0.54136   0.13721   1.000
    N168    N    0.12820   0.12501   0.58602   1.000
    O169    O    0.15044   0.12500   0.53192   1.000
    O170    O    0.16179   0.12501   0.64837   1.000
    O171    O    0.07724   0.12502   0.63675   1.000
    N172    N    0.12120   0.37499   0.08591   1.000
    O173    O    0.17220   0.37500   0.13659   1.000
    O174    O    0.09873   0.37499   0.03184   1.000
    O175    O    0.08800   0.37500   0.14827   1.000
    N176    N    0.09664   0.00055   0.83240   1.000
    O177    O    0.05942   0.04317   0.79705   1.000
    O178    O    0.08180   0.95867   0.86275   1.000
    O179    O    0.14360   0.04377   0.80994   1.000
    N180    N    0.59658   0.50057   0.83247   1.000
    O181    O    0.58174   0.45867   0.86282   1.000
    O182    O    0.64355   0.54378   0.80999   1.000
    O183    O    0.55939   0.54318   0.79708   1.000
    N184    N    0.12822   0.62502   0.58603   1.000
    O185    O    0.16180   0.62502   0.64838   1.000
    O186    O    0.15046   0.62501   0.53193   1.000
    O187    O    0.07726   0.62503   0.63676   1.000
    N188    N    0.65320   0.49950   0.33217   1.000
    O189    O    0.66769   0.54137   0.36257   1.000
    O190    O    0.60650   0.45624   0.30973   1.000
    O191    O    0.69037   0.45687   0.29689   1.000
    N192    N    0.15320   0.49949   0.33219   1.000
    O193    O    0.10651   0.45624   0.30974   1.000
    O194    O    0.16770   0.54137   0.36258   1.000
    O195    O    0.19037   0.45687   0.29690   1.000
    N196    N    0.90339   0.75055   0.16759   1.000
    O197    O    0.94060   0.79316   0.20295   1.000
    O198    O    0.91821   0.70868   0.13723   1.000
    O199    O    0.85642   0.79378   0.19004   1.000
    N200    N    0.65328   0.75053   0.33226   1.000
    O201    O    0.60656   0.79377   0.30979   1.000
    O202    O    0.66777   0.70863   0.36265   1.000
    O203    O    0.69042   0.79316   0.29695   1.000
    N204    N    0.59666   0.24947   0.83235   1.000
    O205    O    0.64360   0.20624   0.80991   1.000
    O206    O    0.58181   0.29135   0.86271   1.000
    O207    O    0.55943   0.20686   0.79701   1.000
    N208    N    0.87181   0.87501   0.41395   1.000
    O209    O    0.84956   0.87502   0.46806   1.000
    O210    O    0.83822   0.87501   0.35161   1.000
    O211    O    0.92277   0.87500   0.36321   1.000
    N212    N    0.59659   0.00057   0.83247   1.000
    O213    O    0.55939   0.04318   0.79709   1.000
    O214    O    0.58175   0.95867   0.86279   1.000
    O215    O    0.64356   0.04377   0.80998   1.000
    N216    N    0.34686   0.50053   0.66779   1.000
    O217    O    0.33236   0.45866   0.63740   1.000
    O218    O    0.39356   0.54379   0.69023   1.000
    O219    O    0.30968   0.54315   0.70308   1.000
    N220    N    0.34685   0.00053   0.66780   1.000
    O221    O    0.33235   0.95866   0.63741   1.000
    O222    O    0.30967   0.04315   0.70308   1.000
    O223    O    0.39355   0.04378   0.69025   1.000
loop_
    _geom_bond_atom_site_label_1
    _geom_bond_atom_site_label_2
    _geom_bond_distance
    _geom_bond_site_symmetry_2
    _ccdc_geom_bond_type
    N32    O33       1.02340      .   S
    Zr25   O33       2.08360  1_554   S
    N32    O34       1.22286      .   S
    Zr29   O34       2.35210      .   S
    N32    O35       1.19749      .   S
    Zr5    O35       2.27356      .   S
    N36    O37       1.22270      .   S
    Zr15   O37       2.35138      .   S
    N36    O38       1.02359      .   S
    Zr11   O38       2.08443  1_556   S
    N36    O39       1.19742      .   S
    Zr23   O39       2.27392      .   S
    N40    O41       1.19741      .   S
    Zr14   O41       2.27317      .   S
    N40    O42       1.02264      .   S
    Zr16   O42       2.08136      .   S
    N40    O43       1.22519      .   S
    Zr20   O43       2.35893      .   S
    N44    O45       1.19904      .   S
    Zr31   O45       2.27822      .   S
    N44    O46       1.02666      .   S
    Zr18   O46       2.08968      .   S
    N44    O47       1.20848      .   S
    Zr7    O47       2.31129      .   S
    N48    O49       1.22512      .   S
    Zr22   O49       2.35881      .   S
    N48    O50       1.02266      .   S
    Zr18   O50       2.08136      .   S
    N48    O51       1.19726      .   S
    Zr12   O51       2.27369  1_455   S
    N52    O53       1.19885      .   S
    Zr15   O53       2.27788      .   S
    N52    O54       1.20830      .   S
    Zr23   O54       2.31100      .   S
    N52    O55       1.02665  1_565   S
    Zr2    O55       2.08968      .   S
    N56    O57       1.22263      .   S
    Zr14   O57       2.35130      .   S
    N56    O58       1.02333      .   S
    Zr10   O58       2.08353  1_556   S
    N56    O59       1.19739      .   S
    Zr22   O59       2.27384      .   S
    N60    O61       1.02657      .   S
    Zr2    O61       2.08926      .   S
    N60    O62       1.19896      .   S
    Zr14   O62       2.27808      .   S
    N60    O63       1.20826      .   S
    Zr22   O63       2.31075      .   S
    N64    O65       1.20935      .   S
    Zr15   O65       2.31451      .   S
    N64    O66       1.02743      .   S
    Zr25   O66       2.09178      .   S
    N64    O67       1.20081      .   S
    Zr21   O67       2.28319      .   S
    N68    O69       1.02729  1_565   S
    Zr26   O69       2.09133      .   S
    N68    O70       1.20082      .   S
    Zr23   O70       2.28325      .   S
    N68    O71       1.20916      .   S
    Zr13   O71       2.31423  1_455   S
    N72    O73       1.20921      .   S
    Zr14   O73       2.31419      .   S
    N72    O74       1.20090      .   S
    Zr20   O74       2.28345      .   S
    N72    O75       1.02733      .   S
    Zr25   O75       2.09138      .   S
    N76    O77       1.02743      .   S
    Zr24   O77       2.09179      .   S
    N76    O78       1.20939      .   S
    Zr14   O78       2.31465      .   S
    N76    O79       1.20080      .   S
    Zr20   O79       2.28309      .   S
    N80    O81       1.20092      .   S
    Zr5    O81       2.28346      .   S
    N80    O82       1.20935      .   S
    Zr31   O82       2.31454  1_655   S
    N80    O83       1.02750      .   S
    Zr9    O83       2.09183      .   S
    N84    O85       1.22271      .   S
    Zr28   O85       2.35148      .   S
    N84    O86       1.02334      .   S
    Zr24   O86       2.08361  1_554   S
    N84    O87       1.19735      .   S
    Zr4    O87       2.27381      .   S
    N88    O89       1.22515      .   S
    Zr6    O89       2.35862      .   S
    N88    O90       1.02254      .   S
    Zr2    O90       2.08121      .   S
    N88    O91       1.19722      .   S
    Zr28   O91       2.27347      .   S
    N92    O93       1.02679      .   S
    Zr1    O93       2.08948      .   S
    N92    O94       1.19930      .   S
    Zr13   O94       2.27755      .   S
    N92    O95       1.20809      .   S
    Zr21   O95       2.31061      .   S
    N96    O97       1.20933      .   S
    Zr30   O97       2.31452  1_655   S
    N96    O98       1.20094      .   S
    Zr4    O98       2.28350      .   S
    N96    O99       1.02749      .   S
    Zr8    O99       2.09184      .   S
    N100   O101      1.22268      .   S
    Zr31   O101      2.35147      .   S
    N100   O102      1.19735      .   S
    Zr7    O102      2.27377      .   S
    N100   O103      1.02327      .   S
    Zr27   O103      2.08336  1_554   S
    N104   O105      1.02258      .   S
    Zr17   O105      2.08131      .   S
    N104   O106      1.19725      .   S
    Zr15   O106      2.27355      .   S
    N104   O107      1.22526      .   S
    Zr21   O107      2.35901      .   S
    N108   O109      1.22518      .   S
    Zr7    O109      2.35856      .   S
    N108   O110      1.02245      .   S
    Zr3    O110      2.08109      .   S
    N108   O111      1.19718      .   S
    Zr29   O111      2.27320      .   S
    N112   O113      1.02757      .   S
    Zr26   O113      2.09168      .   S
    N112   O114      1.20097      .   S
    Zr22   O114      2.28357      .   S
    N112   O115      1.20941      .   S
    Zr12   O115      2.31468  1_455   S
    N116   O117      1.02665  1_565   S
    Zr0    O117      2.08961      .   S
    N116   O118      1.20828      .   S
    Zr21   O118      2.31090      .   S
    N116   O119      1.19889      .   S
    Zr13   O119      2.27796      .   S
    N120   O121      1.20837      .   S
    Zr7    O121      2.31104      .   S
    N120   O122      1.19901      .   S
    Zr31   O122      2.27823      .   S
    N120   O123      1.02661      .   S
    Zr19   O123      2.08936      .   S
    N124   O125      1.20910      .   S
    Zr15   O125      2.31404      .   S
    N124   O126      1.20086      .   S
    Zr21   O126      2.28341      .   S
    N124   O127      1.02732  1_565   S
    Zr24   O127      2.09135      .   S
    N128   O129      1.19898      .   S
    Zr29   O129      2.27809      .   S
    N128   O130      1.20835      .   S
    Zr5    O130      2.31115      .   S
    N128   O131      1.02654      .   S
    Zr17   O131      2.08923      .   S
    N132   O133      1.19898      .   S
    Zr12   O133      2.27811      .   S
    N132   O134      1.20831      .   S
    Zr20   O134      2.31086      .   S
    N132   O135      1.02657      .   S
    Zr0    O135      2.08919      .   S
    N136   O137      1.20920      .   S
    Zr31   O137      2.31412  1_655   S
    N136   O138      1.20085      .   S
    Zr5    O138      2.28329      .   S
    N136   O139      1.02732      .   S
    Zr8    O139      2.09139      .   S
    N140   O141      1.19903      .   S
    Zr30   O141      2.27828      .   S
    N140   O142      1.02659      .   S
    Zr18   O142      2.08930      .   S
    N140   O143      1.20834      .   S
    Zr6    O143      2.31099      .   S
    N144   O145      1.19737      .   S
    Zr6    O145      2.27382      .   S
    N144   O146      1.02327      .   S
    Zr26   O146      2.08335  1_554   S
    N144   O147      1.22265      .   S
    Zr30   O147      2.35139      .   S
    N148   O149      1.02669  1_545   S
    Zr19   O149      2.08959      .   S
    N148   O150      1.20838      .   S
    Zr6    O150      2.31116      .   S
    N148   O151      1.19897      .   S
    Zr30   O151      2.27812      .   S
    N152   O153      1.19746      .   S
    Zr21   O153      2.27383      .   S
    N152   O154      1.22269      .   S
    Zr13   O154      2.35151      .   S
    N152   O155      1.02347      .   S
    Zr9    O155      2.08311  1_556   S
    N156   O157      1.20078      .   S
    Zr7    O157      2.28312      .   S
    N156   O158      1.20929      .   S
    Zr29   O158      2.31444      .   S
    N156   O159      1.02733      .   S
    Zr11   O159      2.09133      .   S
    N160   O161      1.20836      .   S
    Zr4    O161      2.31101      .   S
    N160   O162      1.19903      .   S
    Zr28   O162      2.27823      .   S
    N160   O163      1.02658      .   S
    Zr16   O163      2.08933      .   S
    N164   O165      1.20923      .   S
    Zr12   O165      2.31424  1_455   S
    N164   O166      1.20086      .   S
    Zr22   O166      2.28330      .   S
    N164   O167      1.02733      .   S
    Zr27   O167      2.09138      .   S
    N168   O169      1.02254      .   S
    Zr0    O169      2.08123      .   S
    N168   O170      1.22516      .   S
    Zr4    O170      2.35864      .   S
    N168   O171      1.19731      .   S
    Zr30   O171      2.27371  1_655   S
    N172   O173      1.19736      .   S
    Zr20   O173      2.27376      .   S
    N172   O174      1.02330      .   S
    Zr8    O174      2.08342  1_556   S
    N172   O175      1.22263      .   S
    Zr12   O175      2.35135      .   S
    N176   O177      1.20908      .   S
    Zr30   O177      2.31405  1_655   S
    N176   O178      1.02725  1_545   S
    Zr9    O178      2.09157      .   S
    N176   O179      1.20072      .   S
    Zr4    O179      2.28304      .   S
    N180   O181      1.02737      .   S
    Zr10   O181      2.09146      .   S
    N180   O182      1.20090      .   S
    Zr7    O182      2.28343      .   S
    N180   O183      1.20919      .   S
    Zr29   O183      2.31409      .   S
    N184   O185      1.22510      .   S
    Zr5    O185      2.35842      .   S
    N184   O186      1.02250      .   S
    Zr1    O186      2.08112      .   S
    N184   O187      1.19733      .   S
    Zr31   O187      2.27373  1_655   S
    N188   O189      1.02671      .   S
    Zr3    O189      2.08970      .   S
    N188   O190      1.19894      .   S
    Zr14   O190      2.27805      .   S
    N188   O191      1.20835      .   S
    Zr22   O191      2.31098      .   S
    N192   O193      1.19895      .   S
    Zr12   O193      2.27804      .   S
    N192   O194      1.02670      .   S
    Zr1    O194      2.08973      .   S
    N192   O195      1.20837      .   S
    Zr20   O195      2.31100      .   S
    N196   O197      1.20938      .   S
    Zr13   O197      2.31470  1_455   S
    N196   O198      1.02748      .   S
    Zr27   O198      2.09180      .   S
    N196   O199      1.20096      .   S
    Zr23   O199      2.28360      .   S
    N200   O201      1.19901      .   S
    Zr15   O201      2.27820      .   S
    N200   O202      1.02656      .   S
    Zr3    O202      2.08922      .   S
    N200   O203      1.20822      .   S
    Zr23   O203      2.31067      .   S
    N204   O205      1.20076      .   S
    Zr6    O205      2.28308      .   S
    N204   O206      1.02748      .   S
    Zr10   O206      2.09188      .   S
    N204   O207      1.20933      .   S
    Zr28   O207      2.31434      .   S
    N208   O209      1.02265      .   S
    Zr19   O209      2.08139      .   S
    N208   O210      1.22510      .   S
    Zr23   O210      2.35868      .   S
    N208   O211      1.19749      .   S
    Zr13   O211      2.27347  1_455   S
    N212   O213      1.20905      .   S
    Zr28   O213      2.31388      .   S
    N212   O214      1.02716  1_545   S
    Zr11   O214      2.09084      .   S
    N212   O215      1.20085      .   S
    Zr6    O215      2.28336      .   S
    N216   O217      1.02672      .   S
    Zr16   O217      2.08981      .   S
    N216   O218      1.19890      .   S
    Zr29   O218      2.27790      .   S
    N216   O219      1.20850      .   S
    Zr5    O219      2.31141      .   S
    N220   O221      1.02663  1_545   S
    Zr17   O221      2.08966      .   S
    N220   O222      1.20842      .   S
    Zr4    O222      2.31129      .   S
    N220   O223      1.19892      .   S
    Zr28   O223      2.27804      .   S
