# CIF file generated by openbabel 2.4.90, see http://openbabel.sf.net
data_I
_chemical_name_common ''
_cell_length_a 8.9005
_cell_length_b 9.957
_cell_length_c 10.173
_cell_angle_alpha 82.633
_cell_angle_beta 88.724
_cell_angle_gamma 86.396
_space_group_name_H-M_alt 'P 1'
_space_group_name_Hall 'P 1'
loop_
    _symmetry_equiv_pos_as_xyz
    x,y,z
loop_
    _atom_site_label
    _atom_site_type_symbol
    _atom_site_fract_x
    _atom_site_fract_y
    _atom_site_fract_z
    _atom_site_occupancy
    Zn0     Zn   0.70520   0.88823   0.35092   1.000
    Zn1     Zn   0.24425   0.16188   0.32870   1.000
    Zn2     Zn   0.29481   0.11178   0.64906   1.000
    Zn3     Zn   0.00000   0.00000   0.49999   1.000
    H4      H    0.70676   0.05892   0.51701   1.000
    H5      H    0.29326   0.94108   0.48298   1.000
    O6      O    0.76842   0.97657   0.50516   1.000
    Zn7     Zn   0.75576   0.83813   0.67128   1.000
    O8      O    0.23159   0.02344   0.49482   1.000
loop_
    _geom_bond_atom_site_label_1
    _geom_bond_atom_site_label_2
    _geom_bond_distance
    _geom_bond_site_symmetry_2
    _ccdc_geom_bond_type
    Zn0    O6        2.00189      .   S
    H5     O8        0.97674  1_565   S
    O8     Zn2       2.00191      .   S
    O6     H4        0.97675  1_565   S
    O6     Zn7       2.04509      .   S
    O6     Zn3       2.08762  1_665   S
    O8     Zn1       2.04509      .   S
    O8     Zn3       2.08775      .   S
