# CIF file generated by openbabel 2.4.90, see http://openbabel.sf.net
data_I
_chemical_name_common ''
_cell_length_a 8.9005
_cell_length_b 9.957
_cell_length_c 10.173
_cell_angle_alpha 82.633
_cell_angle_beta 88.724
_cell_angle_gamma 86.396
_space_group_name_H-M_alt 'P 1'
_space_group_name_Hall 'P 1'
loop_
    _symmetry_equiv_pos_as_xyz
    x,y,z
loop_
    _atom_site_label
    _atom_site_type_symbol
    _atom_site_fract_x
    _atom_site_fract_y
    _atom_site_fract_z
    _atom_site_occupancy
    N0      N    0.50000   0.00000   0.99999   1.000
    N1      N    0.00001   0.50000   0.49999   1.000
    N2      N    0.00001   0.00001   0.99999   1.000
    N3      N    0.50001   0.50000   0.49999   1.000
    Zr4     Zr   0.00001   0.00000   0.49999   1.000
    O5      O    0.22380   0.01664   0.66920   1.000
    O6      O    0.80257   0.96662   0.68817   1.000
    O7      O    0.19745   0.03338   0.31182   1.000
    O8      O    0.77621   0.98336   0.33078   1.000
    O9      O    0.97310   0.99071   0.33344   1.000
    O10     O    0.02692   0.00929   0.66654   1.000
    O11     O    0.01977   0.16789   0.48222   1.000
    O12     O    0.98025   0.83212   0.51776   1.000
    O13     O    0.20775   0.17663   0.49712   1.000
    O14     O    0.79227   0.82337   0.50286   1.000
loop_
    _geom_bond_atom_site_label_1
    _geom_bond_atom_site_label_2
    _geom_bond_distance
    _geom_bond_site_symmetry_2
    _ccdc_geom_bond_type
    Zr4    O5        2.68803      .   S
    N0     O5        4.19157      .   S
    Zr4    O6        2.57365  1_445   S
    N0     O6        4.14760  1_545   S
    Zr4    O7        2.57364      .   S
    N0     O7        4.14758  1_556   S
    Zr4    O8        2.68804  1_445   S
    N0     O8        4.19158  1_546   S
    Zr4    O9        1.73133  1_445   S
    N2     O9        3.38515  1_446   S
    Zr4    O10       1.73133      .   S
    N2     O10       3.38516      .   S
    Zr4    O11       1.67813      .   S
    N1     O11       3.32831      .   S
    Zr4    O12       1.67812  1_445   S
    N1     O12       3.32830  1_455   S
    Zr4    O13       2.62789      .   S
    N3     O13       4.26793      .   S
    Zr4    O14       2.62787  1_445   S
    N3     O14       4.26791      .   S
