# CIF file generated by openbabel 2.4.90, see http://openbabel.sf.net
data_I
_chemical_name_common ''
_cell_length_a 8.9005
_cell_length_b 9.957
_cell_length_c 10.173
_cell_angle_alpha 82.633
_cell_angle_beta 88.724
_cell_angle_gamma 86.396
_space_group_name_H-M_alt 'P 1'
_space_group_name_Hall 'P 1'
loop_
    _symmetry_equiv_pos_as_xyz
    x,y,z
loop_
    _atom_site_label
    _atom_site_type_symbol
    _atom_site_fract_x
    _atom_site_fract_y
    _atom_site_fract_z
    _atom_site_occupancy
    Zr0     Zr   0.75576   0.83813   0.67128   1.000
    Zr1     Zr   0.70520   0.88823   0.35092   1.000
    Zr2     Zr   0.24425   0.16188   0.32870   1.000
    Zr3     Zr   0.29481   0.11178   0.64906   1.000
    Zr4     Zr   0.00000   0.00000   0.49999   1.000
    Zr5     Zr   0.70676   0.05892   0.51701   1.000
    Zr6     Zr   0.29326   0.94108   0.48298   1.000
    Zr7     Zr   0.76842   0.97657   0.50516   1.000
    Zr8     Zr   0.23159   0.02344   0.49482   1.000
    O9      O    0.73681   0.93240   0.42804   1.000
    O10     O    0.26243   0.98226   0.48890   1.000
    O11     O    0.26320   0.06761   0.57194   1.000
    O12     O    0.73759   0.01775   0.51108   1.000
    O13     O    0.76209   0.90735   0.58822   1.000
    O14     O    0.88421   0.98828   0.50257   1.000
    O15     O    0.23792   0.09266   0.41176   1.000
    O16     O    0.11580   0.01172   0.49741   1.000
    N17     N    0.50000   0.00000   0.99999   1.000
    O18     O    0.60513   0.93324   0.87634   1.000
    O19     O    0.44760   0.03327   0.83841   1.000
    O20     O    0.39489   0.06676   0.12364   1.000
    O21     O    0.55241   0.96673   0.16157   1.000
    N22     N    0.00001   0.50000   0.49999   1.000
    O23     O    0.99071   0.30143   0.50567   1.000
    O24     O    0.08834   0.37013   0.42322   1.000
    O25     O    0.00930   0.69857   0.49431   1.000
    O26     O    0.91168   0.62988   0.57676   1.000
    N27     N    0.00001   0.00001   0.99999   1.000
    O28     O    0.99534   0.98906   0.80421   1.000
    O29     O    0.11231   0.04810   0.86196   1.000
    O30     O    0.00467   0.01095   0.19577   1.000
    O31     O    0.88770   0.95191   0.13803   1.000
    N32     N    0.50001   0.50000   0.49999   1.000
    O33     O    0.58137   0.64584   0.57158   1.000
    O34     O    0.58770   0.64766   0.43988   1.000
    O35     O    0.41865   0.35417   0.42840   1.000
    O36     O    0.41232   0.35235   0.56010   1.000
loop_
    _geom_bond_atom_site_label_1
    _geom_bond_atom_site_label_2
    _geom_bond_distance
    _geom_bond_site_symmetry_2
    _ccdc_geom_bond_type
    Zr1    O9        1.00095      .   S
    Zr7    O9        1.00095      .   S
    Zr6    O10       0.48837      .   S
    Zr8    O10       0.48837  1_545   S
    Zr8    O11       1.00096      .   S
    Zr3    O11       1.00096      .   S
    Zr7    O12       0.48837  1_565   S
    Zr5    O12       0.48837      .   S
    Zr7    O13       1.02255      .   S
    Zr0    O13       1.02255      .   S
    Zr7    O14       1.04381      .   S
    Zr4    O14       1.04381  1_445   S
    Zr8    O15       1.02254      .   S
    Zr2    O15       1.02254      .   S
    Zr8    O16       1.04388      .   S
    Zr4    O16       1.04388      .   S
    N17    O18       1.72722  1_545   S
    Zr0    O18       2.69603      .   S
    N17    O19       1.70421      .   S
    Zr3    O19       2.40162      .   S
    N17    O20       1.72722  1_556   S
    Zr2    O20       2.69603      .   S
    N17    O21       1.70421  1_546   S
    Zr1    O21       2.40162      .   S
    N22    O23       1.97748  1_455   S
    Zr4    O23       3.00524  1_455   S
    N22    O24       1.73329      .   S
    Zr2    O24       2.69072      .   S
    N22    O25       1.97746      .   S
    Zr4    O25       3.00518  1_545   S
    N22    O26       1.73329  1_455   S
    Zr0    O26       2.69073      .   S
    N27    O28       2.01006  1_445   S
    Zr4    O28       3.08219  1_445   S
    N27    O29       1.73942      .   S
    Zr3    O29       2.71141      .   S
    N27    O30       2.01005  1_556   S
    Zr4    O30       3.08217      .   S
    N27    O31       1.73943  1_446   S
    Zr1    O31       2.71141      .   S
    N32    O33       1.89479      .   S
    Zr0    O33       2.83651      .   S
    N32    O34       1.74268      .   S
    Zr1    O34       2.71430      .   S
    N32    O35       1.89479      .   S
    Zr2    O35       2.83650      .   S
    N32    O36       1.74269      .   S
    Zr3    O36       2.71431      .   S
