# CIF file generated by openbabel 2.4.90, see http://openbabel.sf.net
data_I
_chemical_name_common ''
_cell_length_a 8.9005
_cell_length_b 9.957
_cell_length_c 10.173
_cell_angle_alpha 82.633
_cell_angle_beta 88.724
_cell_angle_gamma 86.396
_space_group_name_H-M_alt 'P 1'
_space_group_name_Hall 'P 1'
loop_
    _symmetry_equiv_pos_as_xyz
    x,y,z
loop_
    _atom_site_label
    _atom_site_type_symbol
    _atom_site_fract_x
    _atom_site_fract_y
    _atom_site_fract_z
    _atom_site_occupancy
    N0      N    0.50000   0.00000   0.99999   1.000
    N1      N    0.00001   0.50000   0.49999   1.000
    N2      N    0.00001   0.00001   0.99999   1.000
    N3      N    0.50001   0.50000   0.49999   1.000
    Zr4     Zr   0.00001   0.00000   0.49999   1.000
    O5      O    0.20617   0.17617   0.53005   1.000
    O6      O    0.22380   0.01664   0.66920   1.000
    O7      O    0.05616   0.02405   0.68097   1.000
    O8      O    0.80257   0.96662   0.68817   1.000
    O9      O    0.95584   0.81494   0.53838   1.000
    O10     O    0.79069   0.82292   0.53579   1.000
    O11     O    0.99767   0.99453   0.65210   1.000
    O12     O    0.00465   0.84929   0.49715   1.000
    O13     O    0.99536   0.15072   0.50283   1.000
    O14     O    0.00234   0.00547   0.34788   1.000
    O15     O    0.20933   0.17709   0.46419   1.000
    O16     O    0.19745   0.03338   0.31182   1.000
    O17     O    0.04417   0.18506   0.46160   1.000
    O18     O    0.79385   0.82383   0.46994   1.000
    O19     O    0.77621   0.98336   0.33078   1.000
    O20     O    0.94385   0.97596   0.31901   1.000
loop_
    _geom_bond_atom_site_label_1
    _geom_bond_atom_site_label_2
    _geom_bond_distance
    _geom_bond_site_symmetry_2
    _ccdc_geom_bond_type
    Zr4    O5        2.66545      .   S
    N3     O5        4.25462      .   S
    Zr4    O6        2.68803      .   S
    N0     O6        4.19157      .   S
    Zr4    O7        1.96622      .   S
    N2     O7        3.25316      .   S
    Zr4    O8        2.57365  1_445   S
    N0     O8        4.14760  1_545   S
    Zr4    O9        1.89791  1_445   S
    N1     O9        3.20823  1_455   S
    Zr4    O10       2.63259  1_445   S
    N3     O10       4.30723      .   S
    Zr4    O11       1.54109  1_445   S
    N2     O11       3.54704  1_445   S
    Zr4    O12       1.50261  1_545   S
    N1     O12       3.47707      .   S
    Zr4    O13       1.50260  1_455   S
    N1     O13       3.47709  1_455   S
    Zr4    O14       1.54109      .   S
    N2     O14       3.54703  1_556   S
    Zr4    O15       2.63261      .   S
    N3     O15       4.30725      .   S
    Zr4    O16       2.57364      .   S
    N0     O16       4.14758  1_556   S
    Zr4    O17       1.89792      .   S
    N1     O17       3.20824      .   S
    Zr4    O18       2.66543  1_445   S
    N3     O18       4.25460      .   S
    Zr4    O19       2.68804  1_445   S
    N0     O19       4.19158  1_546   S
    Zr4    O20       1.96621  1_445   S
    N2     O20       3.25316  1_446   S
