# CIF file generated by openbabel 2.4.90, see http://openbabel.sf.net
data_I
_chemical_name_common ''
_cell_length_a 8.9005
_cell_length_b 9.957
_cell_length_c 10.173
_cell_angle_alpha 82.633
_cell_angle_beta 88.724
_cell_angle_gamma 86.396
_space_group_name_H-M_alt 'P 1'
_space_group_name_Hall 'P 1'
loop_
    _symmetry_equiv_pos_as_xyz
    x,y,z
loop_
    _atom_site_label
    _atom_site_type_symbol
    _atom_site_fract_x
    _atom_site_fract_y
    _atom_site_fract_z
    _atom_site_occupancy
    C0      C    0.75576   0.83813   0.67128   1.000
    C1      C    0.70520   0.88823   0.35092   1.000
    C2      C    0.24425   0.16188   0.32870   1.000
    C3      C    0.29481   0.11178   0.64906   1.000
    C4      C    0.00000   0.00000   0.49999   1.000
    C5      C    0.70676   0.05892   0.51701   1.000
    C6      C    0.87032   0.43608   0.58438   1.000
    C7      C    0.87645   0.91479   0.95403   1.000
    C8      C    0.43389   0.52856   0.63596   1.000
    C9      C    0.37124   0.08663   0.92562   1.000
    C10     C    0.29326   0.94108   0.48298   1.000
    C11     C    0.12969   0.56393   0.41560   1.000
    C12     C    0.12356   0.08522   0.04595   1.000
    C13     C    0.56614   0.47144   0.36402   1.000
    C14     C    0.62876   0.91335   0.07436   1.000
    C15     C    0.01536   0.31314   0.46210   1.000
    C16     C    0.96506   0.44201   0.51451   1.000
    C17     C    0.04030   0.00678   0.81088   1.000
    C18     C    0.97334   0.97697   0.94633   1.000
    C19     C    0.57617   0.67357   0.52014   1.000
    C20     C    0.49673   0.54598   0.54277   1.000
    C21     C    0.54723   0.97582   0.81894   1.000
    C22     C    0.47278   0.01975   0.93920   1.000
    C23     C    0.98466   0.68687   0.53788   1.000
    C24     C    0.03496   0.55799   0.48547   1.000
    C25     C    0.95971   0.99323   0.18910   1.000
    C26     C    0.02667   0.02304   0.05365   1.000
    C27     C    0.42385   0.32643   0.47984   1.000
    C28     C    0.50329   0.45402   0.45722   1.000
    C29     C    0.45279   0.02418   0.18105   1.000
    C30     C    0.52723   0.98024   0.06079   1.000
    C31     C    0.76842   0.97657   0.50516   1.000
    C32     C    0.96282   0.20573   0.52271   1.000
    C33     C    0.10909   0.31862   0.36419   1.000
    C34     C    0.98134   0.95623   0.71686   1.000
    C35     C    0.15443   0.08062   0.79878   1.000
    C36     C    0.56970   0.74521   0.61506   1.000
    C37     C    0.64556   0.70240   0.40862   1.000
    C38     C    0.66473   0.89485   0.83410   1.000
    C39     C    0.49557   0.02132   0.70461   1.000
    C40     C    0.23159   0.02344   0.49482   1.000
    C41     C    0.03719   0.79428   0.47727   1.000
    C42     C    0.89093   0.68139   0.63579   1.000
    C43     C    0.01867   0.04377   0.28312   1.000
    C44     C    0.84558   0.91940   0.20120   1.000
    C45     C    0.43032   0.25480   0.38491   1.000
    C46     C    0.35447   0.29760   0.59136   1.000
    C47     C    0.33528   0.10515   0.16588   1.000
    C48     C    0.50444   0.97868   0.29538   1.000
    O49     O    0.07512   0.05413   0.04980   1.000
    O50     O    0.99319   0.00814   0.12138   1.000
    O51     O    0.00001   0.00000   0.99999   1.000
    O52     O    0.57799   0.94680   0.06757   1.000
    O53     O    0.49001   0.00221   0.12092   1.000
    O54     O    0.50000   1.00000   0.99999   1.000
    O55     O    0.39403   0.06467   0.17346   1.000
    O56     O    0.28977   0.13351   0.24729   1.000
    O57     O    0.47861   0.00143   0.23821   1.000
    O58     O    0.90264   0.95632   0.19515   1.000
    O59     O    0.98919   0.01850   0.23611   1.000
    O60     O    0.77539   0.90381   0.27606   1.000
    O61     O    0.00933   0.02189   0.39155   1.000
    O62     O    0.60482   0.93345   0.32315   1.000
    O63     O    0.17667   0.24025   0.34644   1.000
    O64     O    0.33729   0.20834   0.35681   1.000
    O65     O    0.67538   0.79531   0.37977   1.000
    O66     O    0.73681   0.93240   0.42804   1.000
    O67     O    0.53472   0.46273   0.41062   1.000
    O68     O    0.06222   0.31588   0.41315   1.000
    O69     O    0.42708   0.29062   0.43238   1.000
    O70     O    0.61086   0.68798   0.46438   1.000
    O71     O    0.08232   0.56096   0.45053   1.000
    O72     O    0.46357   0.39023   0.46853   1.000
    O73     O    0.50001   0.50000   0.49999   1.000
    O74     O    0.99021   0.37758   0.48831   1.000
    O75     O    0.98909   0.25943   0.49241   1.000
    O76     O    0.01860   0.89714   0.48863   1.000
    O77     O    0.01092   0.74058   0.50757   1.000
    O78     O    0.38916   0.31202   0.53560   1.000
    O79     O    0.26243   0.98226   0.48890   1.000
    O80     O    0.00001   0.50000   0.49999   1.000
    O81     O    0.00981   0.62243   0.51167   1.000
    O82     O    0.26320   0.06761   0.57194   1.000
    O83     O    0.98141   0.10286   0.51135   1.000
    O84     O    0.99067   0.97812   0.60843   1.000
    O85     O    0.73759   0.01775   0.51108   1.000
    O86     O    0.91769   0.43905   0.54945   1.000
    O87     O    0.53645   0.60977   0.53145   1.000
    O88     O    0.57293   0.70939   0.56760   1.000
    O89     O    0.93779   0.68413   0.58683   1.000
    O90     O    0.46531   0.53727   0.58936   1.000
    O91     O    0.32464   0.20469   0.62021   1.000
    O92     O    0.66273   0.79167   0.64317   1.000
    O93     O    0.82334   0.75976   0.65354   1.000
    O94     O    0.39519   0.06655   0.67683   1.000
    O95     O    0.22462   0.09620   0.72392   1.000
    O96     O    0.71025   0.86649   0.75269   1.000
    O97     O    0.52140   0.99857   0.76177   1.000
    O98     O    0.01082   0.98151   0.76387   1.000
    O99     O    0.09737   0.04370   0.80483   1.000
    O100    O    0.00682   0.99188   0.87860   1.000
    O101    O    0.60598   0.93533   0.82652   1.000
    O102    O    0.51000   0.99778   0.87907   1.000
    O103    O    0.42201   0.05319   0.93241   1.000
    O104    O    0.92490   0.94588   0.95018   1.000
    O105    O    0.76209   0.90735   0.58822   1.000
    O106    O    0.88421   0.98828   0.50257   1.000
    O107    O    0.23792   0.09266   0.41176   1.000
    O108    O    0.11580   0.01172   0.49741   1.000
loop_
    _geom_bond_atom_site_label_1
    _geom_bond_atom_site_label_2
    _geom_bond_distance
    _geom_bond_site_symmetry_2
    _ccdc_geom_bond_type
    C12    O49       0.54425      .   S
    C26    O49       0.54425      .   S
    C26    O50       0.74544  1_455   S
    C25    O50       0.74544  1_565   S
    C26    O51       0.67204  1_554   S
    C18    O51       0.67204  1_665   S
    C30    O52       0.54442      .   S
    C14    O52       0.54442      .   S
    C30    O53       0.74026  1_565   S
    C29    O53       0.74026      .   S
    C30    O54       0.67037  1_554   S
    C22    O54       0.67037  1_545   S
    C47    O55       0.63970      .   S
    C29    O55       0.63970      .   S
    C47    O56       0.97999      .   S
    C2     O56       0.97999      .   S
    C29    O57       0.63873      .   S
    C48    O57       0.63873  1_565   S
    C25    O58       0.64280      .   S
    C44    O58       0.64280      .   S
    C25    O59       0.63685  1_565   S
    C43    O59       0.63685  1_455   S
    C44    O60       0.97726      .   S
    C1     O60       0.97726      .   S
    C43    O61       1.09901      .   S
    C4     O61       1.09901      .   S
    C48    O62       1.00443      .   S
    C1     O62       1.00443      .   S
    C2     O63       0.98773      .   S
    C33    O63       0.98773      .   S
    C2     O64       1.03637      .   S
    C45    O64       1.03637      .   S
    C1     O65       0.98502      .   S
    C37    O65       0.98502      .   S
    C1     O66       1.00095      .   S
    C31    O66       1.00095      .   S
    C13    O67       0.54503      .   S
    C28    O67       0.54503      .   S
    C33    O68       0.64145      .   S
    C15    O68       0.64145      .   S
    C45    O69       0.63515      .   S
    C27    O69       0.63515      .   S
    C37    O70       0.64390      .   S
    C19    O70       0.64390      .   S
    C11    O71       0.54510      .   S
    C24    O71       0.54510      .   S
    C28    O72       0.74122      .   S
    C27    O72       0.74122      .   S
    C28    O73       0.66979      .   S
    C20    O73       0.66979      .   S
    C15    O74       0.74565  1_455   S
    C16    O74       0.74565      .   S
    C15    O75       0.63708  1_455   S
    C32    O75       0.63708      .   S
    C41    O76       1.04778      .   S
    C4     O76       1.04778  1_545   S
    C41    O77       0.63708      .   S
    C23    O77       0.63708  1_655   S
    C27    O78       0.64390      .   S
    C46    O78       0.64390      .   S
    C10    O79       0.48837      .   S
    C40    O79       0.48837  1_545   S
    C24    O80       0.67130      .   S
    C16    O80       0.67130  1_655   S
    C24    O81       0.74565      .   S
    C23    O81       0.74565  1_655   S
    C40    O82       1.00096      .   S
    C3     O82       1.00096      .   S
    C4     O83       1.04782  1_455   S
    C32    O83       1.04782      .   S
    C4     O84       1.09901  1_445   S
    C34    O84       1.09901      .   S
    C31    O85       0.48837  1_565   S
    C5     O85       0.48837      .   S
    C16    O86       0.54509      .   S
    C6     O86       0.54509      .   S
    C19    O87       0.74122      .   S
    C20    O87       0.74122      .   S
    C19    O88       0.63515      .   S
    C36    O88       0.63515      .   S
    C23    O89       0.64146      .   S
    C42    O89       0.64146      .   S
    C20    O90       0.54503      .   S
    C8     O90       0.54503      .   S
    C46    O91       0.98501      .   S
    C3     O91       0.98501      .   S
    C36    O92       1.03637      .   S
    C0     O92       1.03637      .   S
    C42    O93       0.98775      .   S
    C0     O93       0.98775      .   S
    C3     O94       1.00443      .   S
    C39    O94       1.00443      .   S
    C3     O95       0.97726      .   S
    C35    O95       0.97726      .   S
    C0     O96       0.97998      .   S
    C38    O96       0.97998      .   S
    C39    O97       0.63873  1_545   S
    C21    O97       0.63873      .   S
    C34    O98       0.63686  1_655   S
    C17    O98       0.63686  1_545   S
    C35    O99       0.64279      .   S
    C17    O99       0.64279      .   S
    C17    O100      0.74545  1_545   S
    C18    O100      0.74545  1_655   S
    C21    O101      0.63969      .   S
    C38    O101      0.63969      .   S
    C21    O102      0.74026      .   S
    C22    O102      0.74026  1_545   S
    C9     O103      0.54442      .   S
    C22    O103      0.54442      .   S
    C18    O104      0.54426      .   S
    C7     O104      0.54426      .   S
    C31    O105      1.02255      .   S
    C0     O105      1.02255      .   S
    C31    O106      1.04381      .   S
    C4     O106      1.04381  1_445   S
    C40    O107      1.02254      .   S
    C2     O107      1.02254      .   S
    C40    O108      1.04388      .   S
    C4     O108      1.04388      .   S
