# CIF file generated by openbabel 2.4.90, see http://openbabel.sf.net
data_I
_chemical_name_common ''
_cell_length_a 20.994
_cell_length_b 18.038
_cell_length_c 18.041
_cell_angle_alpha 120.021
_cell_angle_beta 90.005
_cell_angle_gamma 89.982
_space_group_name_H-M_alt 'P 1'
_space_group_name_Hall 'P 1'
loop_
    _symmetry_equiv_pos_as_xyz
    x,y,z
loop_
    _atom_site_label
    _atom_site_type_symbol
    _atom_site_fract_x
    _atom_site_fract_y
    _atom_site_fract_z
    _atom_site_occupancy
    H0      H    0.41789   0.55159   0.48012   1.000
    H1      H    0.91790   0.55159   0.48013   1.000
    H2      H    0.25126   0.92852   0.44854   1.000
    H3      H    0.75127   0.92852   0.44854   1.000
    H4      H    0.08454   0.51999   0.07155   1.000
    H5      H    0.58455   0.52000   0.07155   1.000
    H6      H    0.16791   0.44842   0.51988   1.000
    H7      H    0.66792   0.44842   0.51988   1.000
    H8      H    0.50123   0.07147   0.55147   1.000
    H9      H    0.00000   0.07147   0.55147   1.000
    H10     H    0.33455   0.47998   0.92842   1.000
    H11     H    0.83456   0.47998   0.92842   1.000
    N12     N    0.37459   0.56651   0.51150   1.000
    N13     N    0.87460   0.56651   0.51150   1.000
    N14     N    0.20793   0.94502   0.43371   1.000
    N15     N    0.70795   0.94502   0.43371   1.000
    N16     N    0.04124   0.48864   0.05506   1.000
    N17     N    0.54125   0.48864   0.05506   1.000
    N18     N    0.12461   0.43354   0.48851   1.000
    N19     N    0.62462   0.43354   0.48851   1.000
    N20     N    0.45792   0.05499   0.56633   1.000
    N21     N    0.95793   0.05499   0.56633   1.000
    N22     N    0.29123   0.51134   0.94492   1.000
    N23     N    0.79124   0.51134   0.94492   1.000
loop_
    _geom_bond_atom_site_label_1
    _geom_bond_atom_site_label_2
    _geom_bond_distance
    _geom_bond_site_symmetry_2
    _ccdc_geom_bond_type
    N16    H4        1.03286      .   S
    N17    H5        1.03285      .   S
    N14    H2        1.03286      .   S
    N15    H3        1.03286      .   S
    H0     N12       1.03288      .   S
    H1     N13       1.03282      .   S
    N18    H6        1.03287      .   S
    N19    H7        1.03285      .   S
    H8     N20       1.03290      .   S
    H9     N21       1.01011  1_455   S
    H10    N22       1.03286      .   S
    H11    N23       1.03285      .   S
