# CIF file generated by openbabel 2.4.90, see http://openbabel.sf.net
data_I
_chemical_name_common ''
_cell_length_a 20.994
_cell_length_b 18.038
_cell_length_c 18.041
_cell_angle_alpha 120.021
_cell_angle_beta 90.005
_cell_angle_gamma 89.982
_space_group_name_H-M_alt 'P 1'
_space_group_name_Hall 'P 1'
loop_
    _symmetry_equiv_pos_as_xyz
    x,y,z
loop_
    _atom_site_label
    _atom_site_type_symbol
    _atom_site_fract_x
    _atom_site_fract_y
    _atom_site_fract_z
    _atom_site_occupancy
    C0      C    0.01405   0.48733   0.53619   1.000
    C1      C    0.51406   0.48733   0.53619   1.000
    C2      C    0.26406   0.51271   0.46381   1.000
    C3      C    0.76407   0.51271   0.46381   1.000
    C4      C    0.09738   0.95113   0.48735   1.000
    C5      C    0.59739   0.95113   0.48735   1.000
    C6      C    0.43070   0.53628   0.04893   1.000
    C7      C    0.93071   0.53628   0.04893   1.000
    C8      C    0.34737   0.04889   0.51260   1.000
    C9      C    0.84738   0.04889   0.51266   1.000
    C10     C    0.18071   0.46371   0.95105   1.000
    C11     C    0.68072   0.46371   0.95105   1.000
    Br12    Br   0.38014   0.32343   0.45712   1.000
    Br13    Br   0.88015   0.32343   0.45712   1.000
    Br14    Br   0.21336   0.13402   0.67660   1.000
    Br15    Br   0.71337   0.13402   0.67661   1.000
    Br16    Br   0.04671   0.54261   0.86609   1.000
    Br17    Br   0.54672   0.54261   0.86609   1.000
    Br18    Br   0.13010   0.67662   0.54287   1.000
    Br19    Br   0.63011   0.67662   0.54287   1.000
    Br20    Br   0.46335   0.86597   0.32343   1.000
    Br21    Br   0.96336   0.86596   0.32343   1.000
    Br22    Br   0.29677   0.45733   0.13383   1.000
    Br23    Br   0.79678   0.45733   0.13380   1.000
    O24     O    0.26646   0.48737   0.51838   1.000
    O25     O    0.76647   0.48737   0.51838   1.000
    O26     O    0.21695   0.50321   0.41609   1.000
    O27     O    0.71696   0.50321   0.41609   1.000
    O28     O    0.09976   0.03105   0.51268   1.000
    O29     O    0.59977   0.03105   0.51260   1.000
    O30     O    0.05028   0.91292   0.49687   1.000
    O31     O    0.55029   0.91292   0.49687   1.000
    O32     O    0.43313   0.48165   0.96900   1.000
    O33     O    0.93314   0.48165   0.96900   1.000
    O34     O    0.38359   0.58402   0.08710   1.000
    O35     O    0.88359   0.58402   0.08712   1.000
    O36     O    0.01645   0.51270   0.48165   1.000
    O37     O    0.51646   0.51271   0.48165   1.000
    O38     O    0.46696   0.49683   0.58391   1.000
    O39     O    0.96697   0.49683   0.58391   1.000
    O40     O    0.34978   0.96898   0.48730   1.000
    O41     O    0.84979   0.96898   0.48730   1.000
    O42     O    0.30025   0.08710   0.50314   1.000
    O43     O    0.80026   0.08710   0.50314   1.000
    O44     O    0.18312   0.51834   0.03097   1.000
    O45     O    0.68313   0.51834   0.03097   1.000
    O46     O    0.13361   0.41598   0.91285   1.000
    O47     O    0.63362   0.41598   0.91285   1.000
loop_
    _geom_bond_atom_site_label_1
    _geom_bond_atom_site_label_2
    _geom_bond_distance
    _geom_bond_site_symmetry_2
    _ccdc_geom_bond_type
    O45    C11       1.27703  1_554   S
    O44    C10       1.27702  1_554   S
    C6     O34       1.26514      .   S
    C6     O32       1.27714  1_554   S
    C7     O35       1.26522      .   S
    C7     O33       1.27715  1_554   S
    O27    C3        1.26525      .   S
    O26    C2        1.26523      .   S
    C2     O24       1.27713      .   S
    C3     O25       1.27715      .   S
    O36    C0        1.27705      .   S
    O37    C1        1.27709      .   S
    O40    C8        1.27682  1_565   S
    O41    C9        1.27661  1_565   S
    C5     O31       1.26526      .   S
    C5     O29       1.27713  1_565   S
    C4     O30       1.26527      .   S
    C4     O28       1.27683  1_565   S
    O43    C9        1.26528      .   S
    O42    C8        1.26485      .   S
    C1     O38       1.26524      .   S
    C0     O39       1.26498  1_455   S
    O46    C10       1.26527      .   S
    O47    C11       1.26526      .   S
