# CIF file generated by openbabel 2.4.90, see http://openbabel.sf.net
data_I
_chemical_name_common ''
_cell_length_a 20.994
_cell_length_b 18.038
_cell_length_c 18.041
_cell_angle_alpha 120.021
_cell_angle_beta 90.005
_cell_angle_gamma 89.982
_space_group_name_H-M_alt 'P 1'
_space_group_name_Hall 'P 1'
loop_
    _symmetry_equiv_pos_as_xyz
    x,y,z
loop_
    _atom_site_label
    _atom_site_type_symbol
    _atom_site_fract_x
    _atom_site_fract_y
    _atom_site_fract_z
    _atom_site_occupancy
    Zr0     Zr   0.36678   0.47367   0.54992   1.000
    Zr1     Zr   0.86678   0.47367   0.54992   1.000
    Zr2     Zr   0.20010   0.07632   0.52630   1.000
    Zr3     Zr   0.70011   0.07632   0.52639   1.000
    Zr4     Zr   0.03345   0.45006   0.92375   1.000
    Zr5     Zr   0.53346   0.45006   0.92375   1.000
    Zr6     Zr   0.11678   0.52639   0.45010   1.000
    Zr7     Zr   0.61679   0.52639   0.45011   1.000
    Zr8     Zr   0.45012   0.92369   0.47365   1.000
    Zr9     Zr   0.95013   0.92369   0.47360   1.000
    Zr10    Zr   0.28344   0.54992   0.07623   1.000
    Zr11    Zr   0.78345   0.54992   0.07623   1.000
    Zr12    Zr   0.38014   0.32343   0.45712   1.000
    Zr13    Zr   0.88015   0.32343   0.45712   1.000
    Zr14    Zr   0.21336   0.13402   0.67660   1.000
    Zr15    Zr   0.71337   0.13402   0.67661   1.000
    Zr16    Zr   0.04671   0.54261   0.86609   1.000
    Zr17    Zr   0.54672   0.54261   0.86609   1.000
    Zr18    Zr   0.13010   0.67662   0.54287   1.000
    Zr19    Zr   0.63011   0.67662   0.54287   1.000
    Zr20    Zr   0.46335   0.86597   0.32343   1.000
    Zr21    Zr   0.96336   0.86596   0.32343   1.000
    Zr22    Zr   0.29677   0.45733   0.13383   1.000
    Zr23    Zr   0.79678   0.45733   0.13380   1.000
    O24     O    0.79012   0.50362   0.10502   1.000
    O25     O    0.29011   0.50362   0.10503   1.000
    O26     O    0.95675   0.89483   0.39852   1.000
    O27     O    0.45674   0.89483   0.39854   1.000
    O28     O    0.12344   0.60150   0.49649   1.000
    O29     O    0.62345   0.60150   0.49649   1.000
    O30     O    0.37346   0.39855   0.50352   1.000
    O31     O    0.87347   0.39855   0.50352   1.000
    O32     O    0.20673   0.10517   0.60145   1.000
    O33     O    0.70674   0.10517   0.60150   1.000
    O34     O    0.04008   0.49633   0.89492   1.000
    O35     O    0.54009   0.49633   0.89492   1.000
    N36     N    0.47957   0.06323   0.55890   1.000
    O37     O    0.46679   0.02629   0.53945   1.000
    O38     O    0.50640   0.28903   0.81822   1.000
    N39     N    0.06289   0.50432   0.06331   1.000
    O40     O    0.05012   0.48683   0.02636   1.000
    O41     O    0.08972   0.47084   0.28911   1.000
    N42     N    0.22959   0.93677   0.44113   1.000
    O43     O    0.21681   0.97372   0.46057   1.000
    O44     O    0.25636   0.71096   0.18175   1.000
    N45     N    0.39624   0.55905   0.49581   1.000
    O46     O    0.38346   0.53957   0.51326   1.000
    O47     O    0.42310   0.81840   0.52940   1.000
    N48     N    0.14626   0.44098   0.50419   1.000
    O49     O    0.13347   0.46047   0.48675   1.000
    O50     O    0.17309   0.18163   0.47062   1.000
    N51     N    0.89625   0.55905   0.49581   1.000
    O52     O    0.88347   0.53957   0.51326   1.000
    O53     O    0.92311   0.81840   0.52939   1.000
    N54     N    0.97896   0.06323   0.55890   1.000
    O55     O    0.96650   0.02629   0.53943   1.000
    O56     O    0.00640   0.28903   0.81825   1.000
    N57     N    0.56290   0.50432   0.06331   1.000
    O58     O    0.55013   0.48683   0.02636   1.000
    O59     O    0.58973   0.47084   0.28908   1.000
    N60     N    0.64627   0.44098   0.50419   1.000
    O61     O    0.63349   0.46047   0.48675   1.000
    O62     O    0.67310   0.18163   0.47064   1.000
    N63     N    0.31289   0.49566   0.93667   1.000
    O64     O    0.30011   0.51314   0.97362   1.000
    O65     O    0.33968   0.52920   0.71091   1.000
    N66     N    0.81290   0.49566   0.93667   1.000
    O67     O    0.80013   0.51314   0.97362   1.000
    O68     O    0.83969   0.52920   0.71091   1.000
    N69     N    0.72961   0.93677   0.44113   1.000
    O70     O    0.71682   0.97372   0.46059   1.000
    O71     O    0.75638   0.71097   0.18175   1.000
    C72     C    0.91581   0.53398   0.03502   1.000
    O73     O    0.87467   0.55048   0.05835   1.000
    O74     O    0.95459   0.56401   0.07837   1.000
    O75     O    0.94955   0.49992   0.99070   1.000
    C76     C    0.41581   0.53398   0.03501   1.000
    O77     O    0.37466   0.55048   0.05834   1.000
    O78     O    0.44955   0.49992   0.99069   1.000
    O79     O    0.45459   0.56401   0.07837   1.000
    C80     C    0.66582   0.46601   0.96496   1.000
    O81     O    0.69956   0.50007   0.00928   1.000
    O82     O    0.62468   0.44951   0.94163   1.000
    O83     O    0.70461   0.43598   0.92159   1.000
    C84     C    0.16581   0.46601   0.96496   1.000
    O85     O    0.20459   0.43597   0.92159   1.000
    O86     O    0.19955   0.50007   0.00928   1.000
    O87     O    0.12467   0.44951   0.94163   1.000
    C88     C    0.49916   0.49895   0.53392   1.000
    O89     O    0.53289   0.50925   0.49990   1.000
    O90     O    0.45801   0.49210   0.55042   1.000
    O91     O    0.53794   0.48559   0.56391   1.000
    C92     C    0.24916   0.50110   0.46609   1.000
    O93     O    0.28289   0.49081   0.50012   1.000
    O94     O    0.28793   0.51447   0.43610   1.000
    O95     O    0.20801   0.50795   0.44959   1.000
    C96     C    0.74917   0.50110   0.46609   1.000
    O97     O    0.78290   0.49081   0.50012   1.000
    O98     O    0.78794   0.51447   0.43610   1.000
    O99     O    0.70802   0.50795   0.44960   1.000
    C100    C    0.99916   0.49896   0.53392   1.000
    O101    O    0.03289   0.50925   0.49990   1.000
    O102    O    0.03793   0.48559   0.56391   1.000
    O103    O    0.95802   0.49210   0.55042   1.000
    C104    C    0.08247   0.96503   0.49897   1.000
    O105    O    0.12126   0.92169   0.48567   1.000
    O106    O    0.11620   0.00936   0.50923   1.000
    O107    O    0.04134   0.94167   0.49210   1.000
    C108    C    0.58248   0.96503   0.49894   1.000
    O109    O    0.62127   0.92169   0.48566   1.000
    O110    O    0.54134   0.94167   0.49210   1.000
    O111    O    0.61621   0.00936   0.50922   1.000
    C112    C    0.83248   0.03499   0.50103   1.000
    O113    O    0.87125   0.07833   0.51434   1.000
    O114    O    0.86622   0.99066   0.49074   1.000
    O115    O    0.79133   0.05835   0.50790   1.000
    C116    C    0.33247   0.03499   0.50101   1.000
    O117    O    0.37124   0.07833   0.51433   1.000
    O118    O    0.36621   0.99066   0.49074   1.000
    O119    O    0.29132   0.05835   0.50787   1.000
loop_
    _geom_bond_atom_site_label_1
    _geom_bond_atom_site_label_2
    _geom_bond_distance
    _geom_bond_site_symmetry_2
    _ccdc_geom_bond_type
    Zr11   O24       1.19183      .   S
    Zr23   O24       1.19183      .   S
    Zr10   O25       1.19205      .   S
    Zr22   O25       1.19205      .   S
    Zr21   O26       1.19148      .   S
    Zr9    O26       1.19148      .   S
    Zr20   O27       1.19189      .   S
    Zr8    O27       1.19189      .   S
    Zr6    O28       1.19216      .   S
    Zr18   O28       1.19216      .   S
    Zr7    O29       1.19215      .   S
    Zr19   O29       1.19215      .   S
    Zr12   O30       1.19216      .   S
    Zr0    O30       1.19216      .   S
    Zr13   O31       1.19217      .   S
    Zr1    O31       1.19217      .   S
    Zr2    O32       1.19261      .   S
    Zr14   O32       1.19261      .   S
    Zr3    O33       1.19195      .   S
    Zr15   O33       1.19195      .   S
    Zr16   O34       1.19216      .   S
    Zr4    O34       1.19216      .   S
    Zr17   O35       1.19216      .   S
    Zr5    O35       1.19216      .   S
    N36    O37       0.63664      .   S
    Zr8    O37       1.66094  1_565   S
    N36    O38       4.44158      .   S
    Zr5    O38       2.61751      .   S
    N39    O40       0.63671      .   S
    Zr4    O40       1.66144  1_556   S
    N39    O41       4.44271      .   S
    Zr6    O41       2.61735      .   S
    N42    O43       0.63664      .   S
    Zr2    O43       1.66073  1_545   S
    N42    O44       4.44181      .   S
    Zr10   O44       2.61755      .   S
    N45    O46       0.63666      .   S
    Zr0    O46       1.66141      .   S
    N45    O47       4.44244      .   S
    Zr8    O47       2.61764      .   S
    N48    O49       0.63665      .   S
    Zr6    O49       1.66138      .   S
    N48    O50       4.44209      .   S
    Zr2    O50       2.61684      .   S
    N51    O52       0.63664      .   S
    Zr1    O52       1.66140      .   S
    N51    O53       4.44252      .   S
    Zr9    O53       2.61818      .   S
    N54    O55       0.63394      .   S
    Zr9    O55       1.65970  1_565   S
    N54    O56       4.44354  1_655   S
    Zr4    O56       2.61740      .   S
    N57    O58       0.63671      .   S
    Zr5    O58       1.66143  1_556   S
    N57    O59       4.44220      .   S
    Zr7    O59       2.61800      .   S
    N60    O61       0.63661      .   S
    Zr7    O61       1.66127      .   S
    N60    O62       4.44226      .   S
    Zr3    O62       2.61776      .   S
    N63    O64       0.63674      .   S
    Zr10   O64       1.66148  1_554   S
    N63    O65       4.44273      .   S
    Zr0    O65       2.61747      .   S
    N66    O67       0.63675      .   S
    Zr11   O67       1.66149  1_554   S
    N66    O68       4.44273      .   S
    Zr1    O68       2.61745      .   S
    N69    O70       0.63666      .   S
    Zr3    O70       1.66092  1_545   S
    N69    O71       4.44181      .   S
    Zr11   O71       2.61754      .   S
    C72    O73       0.94151      .   S
    Zr11   O73       1.94290      .   S
    C72    O74       1.06959      .   S
    N39    O74       2.47160  1_455   S
    C72    O75       1.01333  1_554   S
    Zr4    O75       2.06938  1_455   S
    C76    O77       0.94151      .   S
    Zr10   O77       1.94294      .   S
    C76    O78       1.01337  1_554   S
    Zr5    O78       2.06959      .   S
    C76    O79       1.06976      .   S
    N57    O79       2.47184      .   S
    C80    O81       1.01341  1_556   S
    Zr11   O81       2.06964      .   S
    C80    O82       0.94154      .   S
    Zr5    O82       1.94286      .   S
    C80    O83       1.06975      .   S
    N66    O83       2.47194      .   S
    C84    O85       1.06974      .   S
    N63    O85       2.47193      .   S
    C84    O86       1.01342  1_556   S
    Zr10   O86       2.06966      .   S
    C84    O87       0.94153      .   S
    Zr4    O87       1.94283      .   S
    C88    O89       1.01335      .   S
    Zr7    O89       2.06956      .   S
    C88    O90       0.94182      .   S
    Zr0    O90       1.94346      .   S
    C88    O91       1.06957      .   S
    N60    O91       2.47224      .   S
    C92    O93       1.01324      .   S
    Zr0    O93       2.06921      .   S
    C92    O94       1.06969      .   S
    N45    O94       2.47215      .   S
    C92    O95       0.94167      .   S
    Zr6    O95       1.94314      .   S
    C96    O97       1.01323      .   S
    Zr1    O97       2.06918      .   S
    C96    O98       1.06970      .   S
    N51    O98       2.47218      .   S
    C96    O99       0.94166      .   S
    Zr7    O99       1.94315      .   S
    C100   O101      1.01332  1_655   S
    Zr6    O101      2.06956      .   S
    C100   O102      1.06949  1_655   S
    N48    O102      2.47217      .   S
    C100   O103      0.94171      .   S
    Zr1    O103      1.94333      .   S
    C104   O105      1.06958      .   S
    N42    O105      2.47218      .   S
    C104   O106      1.01349  1_565   S
    Zr2    O106      2.07008      .   S
    C104   O107      0.94164      .   S
    Zr9    O107      1.94303  1_655   S
    C108   O109      1.06962      .   S
    N69    O109      2.47211      .   S
    C108   O110      0.94178      .   S
    Zr8    O110      1.94325      .   S
    C108   O111      1.01343  1_565   S
    Zr3    O111      2.06981      .   S
    C112   O113      1.06959      .   S
    N54    O113      2.46015      .   S
    C112   O114      1.01328  1_545   S
    Zr9    O114      2.06960      .   S
    C112   O115      0.94160      .   S
    Zr3    O115      1.94303      .   S
    C116   O117      1.06958      .   S
    N36    O117      2.47219      .   S
    C116   O118      1.01337  1_545   S
    Zr8    O118      2.06973      .   S
    C116   O119      0.94162      .   S
    Zr2    O119      1.94293      .   S
