# CIF file generated by openbabel 2.4.90, see http://openbabel.sf.net
data_I
_chemical_name_common ''
_cell_length_a 20.994
_cell_length_b 18.038
_cell_length_c 18.041
_cell_angle_alpha 120.021
_cell_angle_beta 90.005
_cell_angle_gamma 89.982
_space_group_name_H-M_alt 'P 1'
_space_group_name_Hall 'P 1'
loop_
    _symmetry_equiv_pos_as_xyz
    x,y,z
loop_
    _atom_site_label
    _atom_site_type_symbol
    _atom_site_fract_x
    _atom_site_fract_y
    _atom_site_fract_z
    _atom_site_occupancy
    Zr0     Zr   0.36678   0.47367   0.54992   1.000
    Zr1     Zr   0.86678   0.47367   0.54992   1.000
    Zr2     Zr   0.20010   0.07632   0.52630   1.000
    Zr3     Zr   0.70011   0.07632   0.52639   1.000
    Zr4     Zr   0.03345   0.45006   0.92375   1.000
    Zr5     Zr   0.53346   0.45006   0.92375   1.000
    Zr6     Zr   0.11678   0.52639   0.45010   1.000
    Zr7     Zr   0.61679   0.52639   0.45011   1.000
    Zr8     Zr   0.45012   0.92369   0.47365   1.000
    Zr9     Zr   0.95013   0.92369   0.47360   1.000
    Zr10    Zr   0.28344   0.54992   0.07623   1.000
    Zr11    Zr   0.78345   0.54992   0.07623   1.000
    Zr12    Zr   0.26406   0.51271   0.46381   1.000
    Zr13    Zr   0.76407   0.51271   0.46381   1.000
    Zr14    Zr   0.09738   0.95113   0.48735   1.000
    Zr15    Zr   0.59739   0.95113   0.48735   1.000
    Zr16    Zr   0.43070   0.53628   0.04893   1.000
    Zr17    Zr   0.93071   0.53628   0.04893   1.000
    Zr18    Zr   0.01405   0.48733   0.53619   1.000
    Zr19    Zr   0.51406   0.48733   0.53619   1.000
    Zr20    Zr   0.34737   0.04889   0.51260   1.000
    Zr21    Zr   0.84738   0.04889   0.51266   1.000
    Zr22    Zr   0.18071   0.46371   0.95105   1.000
    Zr23    Zr   0.68072   0.46371   0.95105   1.000
    Zr24    Zr   0.38014   0.32343   0.45712   1.000
    Zr25    Zr   0.88015   0.32343   0.45712   1.000
    Zr26    Zr   0.21336   0.13402   0.67660   1.000
    Zr27    Zr   0.71337   0.13402   0.67661   1.000
    Zr28    Zr   0.04671   0.54261   0.86609   1.000
    Zr29    Zr   0.54672   0.54261   0.86609   1.000
    Zr30    Zr   0.13010   0.67662   0.54287   1.000
    Zr31    Zr   0.63011   0.67662   0.54287   1.000
    Zr32    Zr   0.46335   0.86597   0.32343   1.000
    Zr33    Zr   0.96336   0.86596   0.32343   1.000
    Zr34    Zr   0.29677   0.45733   0.13383   1.000
    Zr35    Zr   0.79678   0.45733   0.13380   1.000
    Zr36    Zr   0.26646   0.48737   0.51838   1.000
    Zr37    Zr   0.76647   0.48737   0.51838   1.000
    Zr38    Zr   0.21695   0.50321   0.41609   1.000
    Zr39    Zr   0.71696   0.50321   0.41609   1.000
    Zr40    Zr   0.09976   0.03105   0.51268   1.000
    Zr41    Zr   0.59977   0.03105   0.51260   1.000
    Zr42    Zr   0.05028   0.91292   0.49687   1.000
    Zr43    Zr   0.55029   0.91292   0.49687   1.000
    Zr44    Zr   0.43313   0.48165   0.96900   1.000
    Zr45    Zr   0.93314   0.48165   0.96900   1.000
    Zr46    Zr   0.38359   0.58402   0.08710   1.000
    Zr47    Zr   0.88359   0.58402   0.08712   1.000
    Zr48    Zr   0.01645   0.51270   0.48165   1.000
    Zr49    Zr   0.51646   0.51271   0.48165   1.000
    Zr50    Zr   0.46696   0.49683   0.58391   1.000
    Zr51    Zr   0.96697   0.49683   0.58391   1.000
    Zr52    Zr   0.34978   0.96898   0.48730   1.000
    Zr53    Zr   0.84979   0.96898   0.48730   1.000
    Zr54    Zr   0.30025   0.08710   0.50314   1.000
    Zr55    Zr   0.80026   0.08710   0.50314   1.000
    Zr56    Zr   0.18312   0.51834   0.03097   1.000
    Zr57    Zr   0.68313   0.51834   0.03097   1.000
    Zr58    Zr   0.13361   0.41598   0.91285   1.000
    Zr59    Zr   0.63362   0.41598   0.91285   1.000
    O60     O    0.73329   0.53413   0.05360   1.000
    O61     O    0.68193   0.49103   0.99101   1.000
    O62     O    0.23328   0.53413   0.05360   1.000
    O63     O    0.18191   0.49103   0.99101   1.000
    O64     O    0.40714   0.56015   0.06802   1.000
    O65     O    0.43192   0.50897   0.00896   1.000
    O66     O    0.90715   0.56015   0.06803   1.000
    O67     O    0.93193   0.50897   0.00896   1.000
    O68     O    0.83352   0.56697   0.08168   1.000
    O69     O    0.79012   0.50362   0.10502   1.000
    O70     O    0.33351   0.56697   0.08167   1.000
    O71     O    0.29011   0.50362   0.10503   1.000
    O72     O    0.95675   0.89483   0.39852   1.000
    O73     O    0.45674   0.89483   0.39854   1.000
    O74     O    0.66688   0.51480   0.43310   1.000
    O75     O    0.74052   0.50796   0.43995   1.000
    O76     O    0.16687   0.51480   0.43310   1.000
    O77     O    0.24050   0.50796   0.43995   1.000
    O78     O    0.06661   0.51955   0.46587   1.000
    O79     O    0.12344   0.60150   0.49649   1.000
    O80     O    0.56662   0.51955   0.46588   1.000
    O81     O    0.62345   0.60150   0.49649   1.000
    O82     O    0.37346   0.39855   0.50352   1.000
    O83     O    0.87347   0.39855   0.50352   1.000
    O84     O    0.26526   0.50004   0.49109   1.000
    O85     O    0.76527   0.50004   0.49109   1.000
    O86     O    0.89996   0.94633   0.48045   1.000
    O87     O    0.00021   0.91830   0.48524   1.000
    O88     O    0.39995   0.94633   0.48048   1.000
    O89     O    0.50021   0.91831   0.48526   1.000
    O90     O    0.01525   0.50002   0.50892   1.000
    O91     O    0.51526   0.50002   0.50892   1.000
    O92     O    0.34857   0.00893   0.49995   1.000
    O93     O    0.84858   0.00893   0.49998   1.000
    O94     O    0.57384   0.93203   0.49211   1.000
    O95     O    0.59858   0.99109   0.49998   1.000
    O96     O    0.07383   0.93203   0.49211   1.000
    O97     O    0.09857   0.99109   0.50001   1.000
    O98     O    0.82382   0.06799   0.50790   1.000
    O99     O    0.75019   0.08171   0.51477   1.000
    O100    O    0.32381   0.06799   0.50787   1.000
    O101    O    0.25018   0.08171   0.51472   1.000
    O102    O    0.64994   0.05368   0.51950   1.000
    O103    O    0.14993   0.05368   0.51949   1.000
    O104    O    0.81663   0.48052   0.53415   1.000
    O105    O    0.31662   0.48052   0.53415   1.000
    O106    O    0.20673   0.10517   0.60145   1.000
    O107    O    0.70674   0.10517   0.60150   1.000
    O108    O    0.49051   0.49208   0.56005   1.000
    O109    O    0.99051   0.49208   0.56005   1.000
    O110    O    0.91687   0.48525   0.56691   1.000
    O111    O    0.41687   0.48525   0.56691   1.000
    O112    O    0.04008   0.49633   0.89492   1.000
    O113    O    0.54009   0.49633   0.89492   1.000
    O114    O    0.08353   0.43302   0.91830   1.000
    O115    O    0.15716   0.43984   0.93195   1.000
    O116    O    0.58354   0.43302   0.91830   1.000
    O117    O    0.65717   0.43985   0.93195   1.000
    O118    O    0.98329   0.46585   0.94637   1.000
    O119    O    0.48329   0.46585   0.94637   1.000
    N120    N    0.47957   0.06323   0.55890   1.000
    O121    O    0.46679   0.02629   0.53945   1.000
    O122    O    0.41001   0.12167   0.52764   1.000
    O123    O    0.50640   0.28903   0.81822   1.000
    N124    N    0.06289   0.50432   0.06331   1.000
    O125    O    0.05012   0.48683   0.02636   1.000
    O126    O    0.99337   0.59404   0.12172   1.000
    O127    O    0.08972   0.47084   0.28911   1.000
    N128    N    0.22959   0.93677   0.44113   1.000
    O129    O    0.21681   0.97372   0.46057   1.000
    O130    O    0.16005   0.87834   0.47237   1.000
    O131    O    0.25636   0.71096   0.18175   1.000
    N132    N    0.39624   0.55905   0.49581   1.000
    O133    O    0.38346   0.53957   0.51326   1.000
    O134    O    0.32669   0.52785   0.40611   1.000
    O135    O    0.42310   0.81840   0.52940   1.000
    N136    N    0.14626   0.44098   0.50419   1.000
    O137    O    0.13347   0.46047   0.48675   1.000
    O138    O    0.07671   0.47223   0.59389   1.000
    O139    O    0.17309   0.18163   0.47062   1.000
    N140    N    0.89625   0.55905   0.49581   1.000
    O141    O    0.88347   0.53957   0.51326   1.000
    O142    O    0.82671   0.52785   0.40611   1.000
    O143    O    0.92311   0.81840   0.52939   1.000
    N144    N    0.97896   0.06323   0.55890   1.000
    O145    O    0.96650   0.02629   0.53943   1.000
    O146    O    0.91002   0.12167   0.52766   1.000
    O147    O    0.00640   0.28903   0.81825   1.000
    N148    N    0.56290   0.50432   0.06331   1.000
    O149    O    0.55013   0.48683   0.02636   1.000
    O150    O    0.49336   0.59404   0.12174   1.000
    O151    O    0.58973   0.47084   0.28908   1.000
    N152    N    0.64627   0.44098   0.50419   1.000
    O153    O    0.63349   0.46047   0.48675   1.000
    O154    O    0.57672   0.47223   0.59390   1.000
    O155    O    0.67310   0.18163   0.47064   1.000
    N156    N    0.31289   0.49566   0.93667   1.000
    O157    O    0.30011   0.51314   0.97362   1.000
    O158    O    0.24338   0.40594   0.87821   1.000
    O159    O    0.33968   0.52920   0.71091   1.000
    N160    N    0.81290   0.49566   0.93667   1.000
    O161    O    0.80013   0.51314   0.97362   1.000
    O162    O    0.74339   0.40594   0.87821   1.000
    O163    O    0.83969   0.52920   0.71091   1.000
    N164    N    0.72961   0.93677   0.44113   1.000
    O165    O    0.71682   0.97372   0.46059   1.000
    O166    O    0.66006   0.87834   0.47237   1.000
    O167    O    0.75638   0.71097   0.18175   1.000
loop_
    _geom_bond_atom_site_label_1
    _geom_bond_atom_site_label_2
    _geom_bond_distance
    _geom_bond_site_symmetry_2
    _ccdc_geom_bond_type
    Zr57   O60       1.11378      .   S
    Zr11   O60       1.11378      .   S
    Zr57   O61       0.63851  1_554   S
    Zr23   O61       0.63851      .   S
    Zr56   O62       1.11379      .   S
    Zr10   O62       1.11379      .   S
    Zr56   O63       0.63851  1_554   S
    Zr22   O63       0.63851      .   S
    Zr16   O64       0.63257      .   S
    Zr46   O64       0.63257      .   S
    Zr16   O65       0.63857      .   S
    Zr44   O65       0.63857  1_556   S
    Zr17   O66       0.63261      .   S
    Zr47   O66       0.63261      .   S
    Zr17   O67       0.63857      .   S
    Zr45   O67       0.63857  1_556   S
    Zr11   O68       1.08591      .   S
    Zr47   O68       1.08591      .   S
    Zr11   O69       1.19183      .   S
    Zr35   O69       1.19183      .   S
    Zr10   O70       1.08593      .   S
    Zr46   O70       1.08593      .   S
    Zr10   O71       1.19205      .   S
    Zr34   O71       1.19205      .   S
    Zr33   O72       1.19148      .   S
    Zr9    O72       1.19148      .   S
    Zr32   O73       1.19189      .   S
    Zr8    O73       1.19189      .   S
    Zr39   O74       1.08597      .   S
    Zr7    O74       1.08597      .   S
    Zr39   O75       0.63262      .   S
    Zr13   O75       0.63262      .   S
    Zr38   O76       1.08594      .   S
    Zr6    O76       1.08594      .   S
    Zr38   O77       0.63261      .   S
    Zr12   O77       0.63261      .   S
    Zr6    O78       1.11383      .   S
    Zr48   O78       1.11383      .   S
    Zr6    O79       1.19216      .   S
    Zr30   O79       1.19216      .   S
    Zr7    O80       1.11380      .   S
    Zr49   O80       1.11380      .   S
    Zr7    O81       1.19215      .   S
    Zr31   O81       1.19215      .   S
    Zr24   O82       1.19216      .   S
    Zr0    O82       1.19216      .   S
    Zr25   O83       1.19217      .   S
    Zr1    O83       1.19217      .   S
    Zr12   O84       0.63857      .   S
    Zr36   O84       0.63857      .   S
    Zr13   O85       0.63857      .   S
    Zr37   O85       0.63857      .   S
    Zr9    O86       1.11385      .   S
    Zr53   O86       1.11385      .   S
    Zr9    O87       1.08583  1_655   S
    Zr42   O87       1.08583      .   S
    Zr8    O88       1.11389      .   S
    Zr52   O88       1.11389      .   S
    Zr8    O89       1.08592      .   S
    Zr43   O89       1.08592      .   S
    Zr48   O90       0.63852      .   S
    Zr18   O90       0.63852      .   S
    Zr49   O91       0.63854      .   S
    Zr19   O91       0.63854      .   S
    Zr52   O92       0.63841  1_565   S
    Zr20   O92       0.63841      .   S
    Zr53   O93       0.63830  1_565   S
    Zr21   O93       0.63830      .   S
    Zr15   O94       0.63263      .   S
    Zr43   O94       0.63263      .   S
    Zr15   O95       0.63856      .   S
    Zr41   O95       0.63856  1_545   S
    Zr14   O96       0.63263      .   S
    Zr42   O96       0.63263      .   S
    Zr14   O97       0.63841      .   S
    Zr40   O97       0.63841  1_545   S
    Zr55   O98       0.63264      .   S
    Zr21   O98       0.63264      .   S
    Zr55   O99       1.08588      .   S
    Zr3    O99       1.08588      .   S
    Zr54   O100      0.63243      .   S
    Zr20   O100      0.63243      .   S
    Zr54   O101      1.08567      .   S
    Zr2    O101      1.08567      .   S
    Zr41   O102      1.11400      .   S
    Zr3    O102      1.11400      .   S
    Zr40   O103      1.11412      .   S
    Zr2    O103      1.11412      .   S
    Zr37   O104      1.11356      .   S
    Zr1    O104      1.11356      .   S
    Zr36   O105      1.11358      .   S
    Zr0    O105      1.11358      .   S
    Zr2    O106      1.19261      .   S
    Zr26   O106      1.19261      .   S
    Zr3    O107      1.19195      .   S
    Zr27   O107      1.19195      .   S
    Zr19   O108      0.63262      .   S
    Zr50   O108      0.63262      .   S
    Zr18   O109      0.63249  1_455   S
    Zr51   O109      0.63249      .   S
    Zr1    O110      1.08606      .   S
    Zr51   O110      1.08606      .   S
    Zr0    O111      1.08607      .   S
    Zr50   O111      1.08607      .   S
    Zr28   O112      1.19216      .   S
    Zr4    O112      1.19216      .   S
    Zr29   O113      1.19216      .   S
    Zr5    O113      1.19216      .   S
    Zr58   O114      1.08582      .   S
    Zr4    O114      1.08582      .   S
    Zr58   O115      0.63263      .   S
    Zr22   O115      0.63263      .   S
    Zr59   O116      1.08584      .   S
    Zr5    O116      1.08584      .   S
    Zr59   O117      0.63263      .   S
    Zr23   O117      0.63263      .   S
    Zr4    O118      1.11360  1_455   S
    Zr45   O118      1.11360      .   S
    Zr5    O119      1.11377      .   S
    Zr44   O119      1.11377      .   S
    N120   O121      0.63664      .   S
    Zr8    O121      1.66094  1_565   S
    N120   O122      2.03851      .   S
    Zr20   O122      1.78092      .   S
    N120   O123      4.44158      .   S
    Zr5    O123      2.61751      .   S
    N124   O125      0.63671      .   S
    Zr4    O125      1.66144  1_556   S
    N124   O126      2.03781  1_455   S
    Zr17   O126      1.78091      .   S
    N124   O127      4.44271      .   S
    Zr6    O127      2.61735      .   S
    N128   O129      0.63664      .   S
    Zr2    O129      1.66073  1_545   S
    N128   O130      2.03851      .   S
    Zr14   O130      1.78106      .   S
    N128   O131      4.44181      .   S
    Zr10   O131      2.61755      .   S
    N132   O133      0.63666      .   S
    Zr0    O133      1.66141      .   S
    N132   O134      2.03858      .   S
    Zr12   O134      1.78107      .   S
    N132   O135      4.44244      .   S
    Zr8    O135      2.61764      .   S
    N136   O137      0.63665      .   S
    Zr6    O137      1.66138      .   S
    N136   O138      2.03848      .   S
    Zr18   O138      1.78088      .   S
    N136   O139      4.44209      .   S
    Zr2    O139      2.61684      .   S
    N140   O141      0.63664      .   S
    Zr1    O141      1.66140      .   S
    N140   O142      2.03865      .   S
    Zr13   O142      1.78109      .   S
    N140   O143      4.44252      .   S
    Zr9    O143      2.61818      .   S
    N144   O145      0.63394      .   S
    Zr9    O145      1.65970  1_565   S
    N144   O146      2.02913      .   S
    Zr21   O146      1.78109      .   S
    N144   O147      4.44354  1_655   S
    Zr4    O147      2.61740      .   S
    N148   O149      0.63671      .   S
    Zr5    O149      1.66143  1_556   S
    N148   O150      2.03801      .   S
    Zr16   O150      1.78118      .   S
    N148   O151      4.44220      .   S
    Zr7    O151      2.61800      .   S
    N152   O153      0.63661      .   S
    Zr7    O153      1.66127      .   S
    N152   O154      2.03854      .   S
    Zr19   O154      1.78096      .   S
    N152   O155      4.44226      .   S
    Zr3    O155      2.61776      .   S
    N156   O157      0.63674      .   S
    Zr10   O157      1.66148  1_554   S
    N156   O158      2.03823      .   S
    Zr22   O158      1.78126      .   S
    N156   O159      4.44273      .   S
    Zr0    O159      2.61747      .   S
    N160   O161      0.63675      .   S
    Zr11   O161      1.66149  1_554   S
    N160   O162      2.03823      .   S
    Zr23   O162      1.78127      .   S
    N160   O163      4.44273      .   S
    Zr1    O163      2.61745      .   S
    N164   O165      0.63666      .   S
    Zr3    O165      1.66092  1_545   S
    N164   O166      2.03852      .   S
    Zr15   O166      1.78108      .   S
    N164   O167      4.44181      .   S
    Zr11   O167      2.61754      .   S
