# CIF file generated by openbabel 2.4.90, see http://openbabel.sf.net
data_I
_chemical_name_common ''
_cell_length_a 14.788
_cell_length_b 18.115
_cell_length_c 19.486
_cell_angle_alpha 90.005
_cell_angle_beta 89.99
_cell_angle_gamma 90.07
_space_group_name_H-M_alt 'P 1'
_space_group_name_Hall 'P 1'
loop_
    _symmetry_equiv_pos_as_xyz
    x,y,z
loop_
    _atom_site_label
    _atom_site_type_symbol
    _atom_site_fract_x
    _atom_site_fract_y
    _atom_site_fract_z
    _atom_site_occupancy
    H0      H    0.19944   0.35742   0.49341   1.000
    H1      H    0.19945   0.85741   0.49292   1.000
    H2      H    0.69945   0.35741   0.49301   1.000
    H3      H    0.69946   0.85741   0.49318   1.000
    H4      H    0.44907   0.14263   0.50698   1.000
    H5      H    0.44908   0.64263   0.50686   1.000
    H6      H    0.94908   0.14263   0.50690   1.000
    H7      H    0.94909   0.64263   0.50694   1.000
    H8      H    0.19900   0.39262   0.99303   1.000
    H9      H    0.19901   0.89262   0.99320   1.000
    H10     H    0.69901   0.39261   0.99314   1.000
    H11     H    0.69902   0.89263   0.99308   1.000
    H12     H    0.44936   0.10739   0.00000   1.000
    H13     H    0.44936   0.60740   0.00000   1.000
    H14     H    0.94937   0.10740   0.00000   1.000
    H15     H    0.94936   0.60740   0.00000   1.000
    C16     C    0.20023   0.17397   0.61076   1.000
    C17     C    0.20023   0.67402   0.61080   1.000
    C18     C    0.70022   0.17402   0.61082   1.000
    C19     C    0.70025   0.67398   0.61077   1.000
    C20     C    0.19852   0.08517   0.89597   1.000
    C21     C    0.19846   0.58518   0.89601   1.000
    C22     C    0.69853   0.08517   0.89601   1.000
    C23     C    0.69853   0.58518   0.89598   1.000
    O24     O    0.02436   0.42514   0.07461   1.000
    O25     O    0.02446   0.92515   0.07460   1.000
    O26     O    0.52441   0.42514   0.07458   1.000
    O27     O    0.52438   0.92515   0.07461   1.000
    O28     O    0.44930   0.19612   0.50288   1.000
    C29     C    0.45045   0.32600   0.38910   1.000
    C30     C    0.45039   0.82603   0.38916   1.000
    C31     C    0.95038   0.32601   0.38910   1.000
    C32     C    0.95045   0.82602   0.38915   1.000
    C33     C    0.44832   0.41484   0.10395   1.000
    C34     C    0.44829   0.91484   0.10396   1.000
    C35     C    0.94828   0.41483   0.10396   1.000
    C36     C    0.94838   0.91485   0.10396   1.000
    C37     C    0.20030   0.07604   0.11077   1.000
    C38     C    0.20030   0.57603   0.11081   1.000
    C39     C    0.70031   0.07601   0.11082   1.000
    C40     C    0.70029   0.57604   0.11078   1.000
    C41     C    0.19873   0.16483   0.39598   1.000
    C42     C    0.19892   0.66485   0.39603   1.000
    C43     C    0.69880   0.16483   0.39603   1.000
    C44     C    0.69886   0.66483   0.39599   1.000
    C45     C    0.45019   0.42401   0.88915   1.000
    C46     C    0.45021   0.92400   0.88917   1.000
    C47     C    0.95021   0.42400   0.88917   1.000
    C48     C    0.95019   0.92400   0.88916   1.000
    C49     C    0.44866   0.33520   0.60394   1.000
    C50     C    0.44908   0.83519   0.60396   1.000
    C51     C    0.94900   0.33519   0.60395   1.000
    C52     C    0.94881   0.83519   0.60395   1.000
    O53     O    0.27668   0.18394   0.58194   1.000
    O54     O    0.27668   0.68403   0.58201   1.000
    O55     O    0.77667   0.18401   0.58201   1.000
    O56     O    0.77670   0.68398   0.58196   1.000
    O57     O    0.12414   0.18362   0.58128   1.000
    O58     O    0.12415   0.68369   0.58130   1.000
    O59     O    0.62414   0.18369   0.58134   1.000
    O60     O    0.62416   0.68364   0.58130   1.000
    O61     O    0.12211   0.07491   0.92480   1.000
    O62     O    0.12204   0.57492   0.92480   1.000
    O63     O    0.62211   0.07491   0.92483   1.000
    O64     O    0.62212   0.57492   0.92481   1.000
    O65     O    0.27461   0.07484   0.92527   1.000
    O66     O    0.27454   0.57485   0.92531   1.000
    O67     O    0.77461   0.07484   0.92530   1.000
    O68     O    0.77461   0.57485   0.92528   1.000
    O69     O    0.19941   0.30389   0.49706   1.000
    O70     O    0.19944   0.80392   0.49710   1.000
    O71     O    0.69942   0.30391   0.49712   1.000
    O72     O    0.69945   0.80390   0.49705   1.000
    O73     O    0.02682   0.31595   0.41785   1.000
    O74     O    0.02690   0.81594   0.41784   1.000
    O75     O    0.52692   0.31594   0.41782   1.000
    O76     O    0.52685   0.81595   0.41785   1.000
    O77     O    0.37439   0.31641   0.41870   1.000
    O78     O    0.37432   0.81646   0.41875   1.000
    O79     O    0.87431   0.31644   0.41874   1.000
    O80     O    0.87439   0.81644   0.41874   1.000
    O81     O    0.37191   0.42512   0.07520   1.000
    O82     O    0.37189   0.92512   0.07520   1.000
    O83     O    0.87188   0.42511   0.07520   1.000
    O84     O    0.87197   0.92513   0.07520   1.000
    O85     O    0.44933   0.69614   0.50289   1.000
    O86     O    0.94931   0.19613   0.50289   1.000
    O87     O    0.94934   0.69613   0.50280   1.000
    O88     O    0.27673   0.06607   0.08190   1.000
    O89     O    0.27672   0.56605   0.08200   1.000
    O90     O    0.77673   0.06603   0.08202   1.000
    O91     O    0.77671   0.56607   0.08196   1.000
    O92     O    0.12420   0.06640   0.08127   1.000
    O93     O    0.12419   0.56637   0.08133   1.000
    O94     O    0.62420   0.06637   0.08132   1.000
    O95     O    0.62417   0.56639   0.08100   1.000
    O96     O    0.12236   0.17511   0.42481   1.000
    O97     O    0.12258   0.67513   0.42490   1.000
    O98     O    0.62244   0.17512   0.42480   1.000
    O99     O    0.62251   0.67512   0.42485   1.000
    O100    O    0.27485   0.17514   0.42526   1.000
    O101    O    0.27508   0.67514   0.42527   1.000
    O102    O    0.77494   0.17514   0.42530   1.000
    O103    O    0.77500   0.67514   0.42525   1.000
    O104    O    0.19917   0.44612   0.99708   1.000
    O105    O    0.19918   0.94614   0.99700   1.000
    O106    O    0.69918   0.44613   0.99707   1.000
    O107    O    0.69919   0.94613   0.99700   1.000
    O108    O    0.02662   0.43394   0.91801   1.000
    O109    O    0.02661   0.93397   0.91798   1.000
    O110    O    0.52663   0.43397   0.91795   1.000
    O111    O    0.52663   0.93396   0.91801   1.000
    O112    O    0.37410   0.43368   0.91863   1.000
    O113    O    0.37410   0.93367   0.91862   1.000
    O114    O    0.87410   0.43366   0.91862   1.000
    O115    O    0.87409   0.93367   0.91863   1.000
    O116    O    0.37226   0.32492   0.57510   1.000
    O117    O    0.37274   0.82490   0.57506   1.000
    O118    O    0.87265   0.32490   0.57508   1.000
    O119    O    0.87242   0.82492   0.57511   1.000
    O120    O    0.02514   0.32489   0.57472   1.000
    O121    O    0.02491   0.82488   0.57467   1.000
    O122    O    0.52476   0.32487   0.57464   1.000
    O123    O    0.52524   0.82489   0.57474   1.000
    O124    O    0.44931   0.05389   0.00289   1.000
    O125    O    0.44930   0.55390   0.00289   1.000
    O126    O    0.94932   0.05389   0.00289   1.000
    O127    O    0.94931   0.55389   0.00290   1.000
loop_
    _geom_bond_atom_site_label_1
    _geom_bond_atom_site_label_2
    _geom_bond_distance
    _geom_bond_site_symmetry_2
    _ccdc_geom_bond_type
    H12    O124      0.97090      .   S
    H13    O125      0.97081      .   S
    H14    O126      0.97095      .   S
    H15    O127      0.97097      .   S
    O26    C33       1.27581      .   S
    O25    C36       1.27553  1_455   S
    O27    C34       1.27570      .   S
    O24    C35       1.27548  1_455   S
    O84    C36       1.27523      .   S
    O83    C35       1.27519      .   S
    O82    C34       1.27518      .   S
    O81    C33       1.27519      .   S
    O95    C40       1.27824      .   S
    O92    C37       1.27566      .   S
    O94    C39       1.27568      .   S
    O93    C38       1.27560      .   S
    O88    C37       1.27543      .   S
    O91    C40       1.27490      .   S
    O89    C38       1.27482      .   S
    O90    C39       1.27484      .   S
    C31    O73       1.27507  1_655   S
    C31    O79       1.27608      .   S
    C29    O75       1.27518      .   S
    C29    O77       1.27560      .   S
    C32    O74       1.27467  1_655   S
    C32    O80       1.27558      .   S
    C30    O76       1.27482      .   S
    C30    O78       1.27563      .   S
    C41    O96       1.27514      .   S
    C41    O100      1.27567      .   S
    C44    O99       1.27517      .   S
    C44    O103      1.27577      .   S
    C42    O97       1.27514      .   S
    C42    O101      1.27576      .   S
    C43    O98       1.27453      .   S
    C43    O102      1.27579      .   S
    H1     O70       0.97238      .   S
    H2     O71       0.97239      .   S
    H3     O72       0.97236      .   S
    H0     O69       0.97238      .   S
    O87    H7        0.97250      .   S
    O28    H4        0.97238      .   S
    O85    H5        0.97237      .   S
    O86    H6        0.97236      .   S
    O122   C49       1.27573      .   S
    O121   C52       1.27558  1_455   S
    O120   C51       1.27556  1_455   S
    O123   C50       1.27583      .   S
    O117   C50       1.27515      .   S
    O118   C51       1.27507      .   S
    O116   C49       1.27546      .   S
    O119   C52       1.27519      .   S
    O57    C16       1.27562      .   S
    O60    C19       1.27551      .   S
    O58    C17       1.27576      .   S
    O59    C18       1.27564      .   S
    O53    C16       1.27493      .   S
    O56    C19       1.27491      .   S
    O55    C18       1.27490      .   S
    O54    C17       1.27481      .   S
    C45    O110      1.27479      .   S
    C45    O112      1.27557      .   S
    C48    O109      1.27463  1_655   S
    C48    O115      1.27562      .   S
    C46    O111      1.27484      .   S
    C46    O113      1.27561      .   S
    C47    O108      1.27462  1_655   S
    C47    O114      1.27556      .   S
    C20    O61       1.27527      .   S
    C20    O65       1.27579      .   S
    C23    O64       1.27524      .   S
    C23    O68       1.27583      .   S
    C22    O63       1.27517      .   S
    C22    O67       1.27576      .   S
    C21    O62       1.27497      .   S
    C21    O66       1.27578      .   S
    H8     O104      0.97239      .   S
    H11    O107      0.97226      .   S
    H10    O106      0.97242      .   S
    H9     O105      0.97230      .   S
