# CIF file generated by openbabel 2.4.90, see http://openbabel.sf.net
data_I
_chemical_name_common ''
_cell_length_a 14.788
_cell_length_b 18.115
_cell_length_c 19.486
_cell_angle_alpha 90.005
_cell_angle_beta 89.99
_cell_angle_gamma 90.07
_space_group_name_H-M_alt 'P 1'
_space_group_name_Hall 'P 1'
loop_
    _symmetry_equiv_pos_as_xyz
    x,y,z
loop_
    _atom_site_label
    _atom_site_type_symbol
    _atom_site_fract_x
    _atom_site_fract_y
    _atom_site_fract_z
    _atom_site_occupancy
    Sc0     Sc   0.32448   0.75013   0.49979   1.000
    Sc1     Sc   0.82445   0.25011   0.49978   1.000
    Sc2     Sc   0.82447   0.75011   0.49975   1.000
    Sc3     Sc   0.07444   0.24991   0.50017   1.000
    Sc4     Sc   0.07446   0.74993   0.50020   1.000
    Sc5     Sc   0.57442   0.24993   0.50021   1.000
    Sc6     Sc   0.57448   0.74991   0.50017   1.000
    Sc7     Sc   0.32427   0.49997   0.99970   1.000
    Sc8     Sc   0.32428   0.99997   0.99968   1.000
    Sc9     Sc   0.82428   0.49996   0.99969   1.000
    Sc10    Sc   0.82429   0.99997   0.99971   1.000
    Sc11    Sc   0.07429   0.00006   0.00024   1.000
    Sc12    Sc   0.07427   0.50005   0.00029   1.000
    Sc13    Sc   0.57429   0.00005   0.00028   1.000
    Sc14    Sc   0.57428   0.50006   0.00025   1.000
    H15     H    0.19944   0.35742   0.49341   1.000
    Sc16    Sc   0.32442   0.25009   0.49972   1.000
    H17     H    0.19945   0.85741   0.49292   1.000
    H18     H    0.69945   0.35741   0.49301   1.000
    H19     H    0.69946   0.85741   0.49318   1.000
    H20     H    0.44907   0.14263   0.50698   1.000
    H21     H    0.44908   0.64263   0.50686   1.000
    H22     H    0.94908   0.14263   0.50690   1.000
    H23     H    0.94909   0.64263   0.50694   1.000
    H24     H    0.19900   0.39262   0.99303   1.000
    H25     H    0.19901   0.89262   0.99320   1.000
    H26     H    0.69901   0.39261   0.99314   1.000
    H27     H    0.69902   0.89263   0.99308   1.000
    H28     H    0.44936   0.10739   0.00000   1.000
    H29     H    0.44936   0.60740   0.00000   1.000
    H30     H    0.94937   0.10740   0.00000   1.000
    H31     H    0.94936   0.60740   0.00000   1.000
    C32     C    0.20023   0.17397   0.61076   1.000
    C33     C    0.20023   0.67402   0.61080   1.000
    C34     C    0.70022   0.17402   0.61082   1.000
    C35     C    0.70025   0.67398   0.61077   1.000
    C36     C    0.19852   0.08517   0.89597   1.000
    C37     C    0.19846   0.58518   0.89601   1.000
    C38     C    0.69853   0.08517   0.89601   1.000
    C39     C    0.69853   0.58518   0.89598   1.000
    O40     O    0.02436   0.42514   0.07461   1.000
    O41     O    0.02446   0.92515   0.07460   1.000
    O42     O    0.52441   0.42514   0.07458   1.000
    O43     O    0.52438   0.92515   0.07461   1.000
    O44     O    0.44930   0.19612   0.50288   1.000
    C45     C    0.45045   0.32600   0.38910   1.000
    C46     C    0.45039   0.82603   0.38916   1.000
    C47     C    0.95038   0.32601   0.38910   1.000
    C48     C    0.95045   0.82602   0.38915   1.000
    C49     C    0.44832   0.41484   0.10395   1.000
    C50     C    0.44829   0.91484   0.10396   1.000
    C51     C    0.94828   0.41483   0.10396   1.000
    C52     C    0.94838   0.91485   0.10396   1.000
    C53     C    0.20030   0.07604   0.11077   1.000
    C54     C    0.20030   0.57603   0.11081   1.000
    C55     C    0.70031   0.07601   0.11082   1.000
    C56     C    0.70029   0.57604   0.11078   1.000
    C57     C    0.19873   0.16483   0.39598   1.000
    C58     C    0.19892   0.66485   0.39603   1.000
    C59     C    0.69880   0.16483   0.39603   1.000
    C60     C    0.69886   0.66483   0.39599   1.000
    C61     C    0.45019   0.42401   0.88915   1.000
    C62     C    0.45021   0.92400   0.88917   1.000
    C63     C    0.95021   0.42400   0.88917   1.000
    C64     C    0.95019   0.92400   0.88916   1.000
    C65     C    0.44866   0.33520   0.60394   1.000
    C66     C    0.44908   0.83519   0.60396   1.000
    C67     C    0.94900   0.33519   0.60395   1.000
    C68     C    0.94881   0.83519   0.60395   1.000
    O69     O    0.27668   0.18394   0.58194   1.000
    O70     O    0.27668   0.68403   0.58201   1.000
    O71     O    0.77667   0.18401   0.58201   1.000
    O72     O    0.77670   0.68398   0.58196   1.000
    O73     O    0.12414   0.18362   0.58128   1.000
    O74     O    0.12415   0.68369   0.58130   1.000
    O75     O    0.62414   0.18369   0.58134   1.000
    O76     O    0.62416   0.68364   0.58130   1.000
    O77     O    0.12211   0.07491   0.92480   1.000
    O78     O    0.12204   0.57492   0.92480   1.000
    O79     O    0.62211   0.07491   0.92483   1.000
    O80     O    0.62212   0.57492   0.92481   1.000
    O81     O    0.27461   0.07484   0.92527   1.000
    O82     O    0.27454   0.57485   0.92531   1.000
    O83     O    0.77461   0.07484   0.92530   1.000
    O84     O    0.77461   0.57485   0.92528   1.000
    O85     O    0.19941   0.30389   0.49706   1.000
    O86     O    0.19944   0.80392   0.49710   1.000
    O87     O    0.69942   0.30391   0.49712   1.000
    O88     O    0.69945   0.80390   0.49705   1.000
    O89     O    0.02682   0.31595   0.41785   1.000
    O90     O    0.02690   0.81594   0.41784   1.000
    O91     O    0.52692   0.31594   0.41782   1.000
    O92     O    0.52685   0.81595   0.41785   1.000
    O93     O    0.37439   0.31641   0.41870   1.000
    O94     O    0.37432   0.81646   0.41875   1.000
    O95     O    0.87431   0.31644   0.41874   1.000
    O96     O    0.87439   0.81644   0.41874   1.000
    O97     O    0.37191   0.42512   0.07520   1.000
    O98     O    0.37189   0.92512   0.07520   1.000
    O99     O    0.87188   0.42511   0.07520   1.000
    O100    O    0.87197   0.92513   0.07520   1.000
    O101    O    0.44933   0.69614   0.50289   1.000
    O102    O    0.94931   0.19613   0.50289   1.000
    O103    O    0.94934   0.69613   0.50280   1.000
    O104    O    0.27673   0.06607   0.08190   1.000
    O105    O    0.27672   0.56605   0.08200   1.000
    O106    O    0.77673   0.06603   0.08202   1.000
    O107    O    0.77671   0.56607   0.08196   1.000
    O108    O    0.12420   0.06640   0.08127   1.000
    O109    O    0.12419   0.56637   0.08133   1.000
    O110    O    0.62420   0.06637   0.08132   1.000
    O111    O    0.62417   0.56639   0.08100   1.000
    O112    O    0.12236   0.17511   0.42481   1.000
    O113    O    0.12258   0.67513   0.42490   1.000
    O114    O    0.62244   0.17512   0.42480   1.000
    O115    O    0.62251   0.67512   0.42485   1.000
    O116    O    0.27485   0.17514   0.42526   1.000
    O117    O    0.27508   0.67514   0.42527   1.000
    O118    O    0.77494   0.17514   0.42530   1.000
    O119    O    0.77500   0.67514   0.42525   1.000
    O120    O    0.19917   0.44612   0.99708   1.000
    O121    O    0.19918   0.94614   0.99700   1.000
    O122    O    0.69918   0.44613   0.99707   1.000
    O123    O    0.69919   0.94613   0.99700   1.000
    O124    O    0.02662   0.43394   0.91801   1.000
    O125    O    0.02661   0.93397   0.91798   1.000
    O126    O    0.52663   0.43397   0.91795   1.000
    O127    O    0.52663   0.93396   0.91801   1.000
    O128    O    0.37410   0.43368   0.91863   1.000
    O129    O    0.37410   0.93367   0.91862   1.000
    O130    O    0.87410   0.43366   0.91862   1.000
    O131    O    0.87409   0.93367   0.91863   1.000
    O132    O    0.37226   0.32492   0.57510   1.000
    O133    O    0.37274   0.82490   0.57506   1.000
    O134    O    0.87265   0.32490   0.57508   1.000
    O135    O    0.87242   0.82492   0.57511   1.000
    O136    O    0.02514   0.32489   0.57472   1.000
    O137    O    0.02491   0.82488   0.57467   1.000
    O138    O    0.52476   0.32487   0.57464   1.000
    O139    O    0.52524   0.82489   0.57474   1.000
    O140    O    0.44931   0.05389   0.00289   1.000
    O141    O    0.44930   0.55390   0.00289   1.000
    O142    O    0.94932   0.05389   0.00289   1.000
    O143    O    0.94931   0.55389   0.00290   1.000
loop_
    _geom_bond_atom_site_label_1
    _geom_bond_atom_site_label_2
    _geom_bond_distance
    _geom_bond_site_symmetry_2
    _ccdc_geom_bond_type
    H28    O140      0.97090      .   S
    H29    O141      0.97081      .   S
    H30    O142      0.97095      .   S
    H31    O143      0.97097      .   S
    Sc11   O41       2.11696  1_545   S
    Sc11   O108      2.11653      .   S
    Sc11   O125      2.12090  1_544   S
    Sc11   O77       2.12062  1_554   S
    Sc14   O42       2.11696      .   S
    Sc14   O111      2.11225      .   S
    Sc14   O126      2.12130  1_554   S
    Sc14   O80       2.12074  1_554   S
    Sc13   O43       2.11687  1_545   S
    Sc13   O110      2.11647      .   S
    Sc13   O127      2.12094  1_544   S
    Sc13   O79       2.12082  1_554   S
    Sc12   O40       2.11692      .   S
    Sc12   O109      2.11652      .   S
    Sc12   O124      2.12120  1_554   S
    Sc12   O78       2.12126  1_554   S
    O142   Sc10      2.09095  1_544   S
    O141   Sc7       2.09111  1_554   S
    O140   Sc8       2.09095  1_544   S
    O143   Sc9       2.09106  1_554   S
    O42    C49       1.27581      .   S
    O41    C52       1.27553  1_455   S
    O43    C50       1.27570      .   S
    O40    C51       1.27548  1_455   S
    O100   C52       1.27523      .   S
    O100   Sc10      2.12173  1_554   S
    O99    C51       1.27519      .   S
    O99    Sc9       2.12175  1_554   S
    O98    C50       1.27518      .   S
    O98    Sc8       2.12189  1_554   S
    O97    C49       1.27519      .   S
    O97    Sc7       2.12182  1_554   S
    O111   C56       1.27824      .   S
    O108   C53       1.27566      .   S
    O110   C55       1.27568      .   S
    O109   C54       1.27560      .   S
    O104   C53       1.27543      .   S
    O104   Sc8       2.12044  1_544   S
    O107   C56       1.27490      .   S
    O107   Sc9       2.12140  1_554   S
    O105   C54       1.27482      .   S
    O105   Sc7       2.12155  1_554   S
    O106   C55       1.27484      .   S
    O106   Sc10      2.12153  1_544   S
    C47    O89       1.27507  1_655   S
    C47    O95       1.27608      .   S
    C45    O91       1.27518      .   S
    C45    O93       1.27560      .   S
    C48    O90       1.27467  1_655   S
    C48    O96       1.27558      .   S
    C46    O92       1.27482      .   S
    C46    O94       1.27563      .   S
    C57    O112      1.27514      .   S
    C57    O116      1.27567      .   S
    C60    O115      1.27517      .   S
    C60    O119      1.27577      .   S
    C58    O113      1.27514      .   S
    C58    O117      1.27576      .   S
    C59    O114      1.27453      .   S
    C59    O118      1.27579      .   S
    O91    Sc5       2.12208      .   S
    O90    Sc4       2.12203      .   S
    O89    Sc3       2.12201      .   S
    O92    Sc6       2.12211      .   S
    O93    Sc16      2.11659      .   S
    O95    Sc1       2.11624      .   S
    O96    Sc2       2.11628      .   S
    O94    Sc0       2.11623      .   S
    O114   Sc5       2.12178      .   S
    O112   Sc3       2.12044      .   S
    O115   Sc6       2.12031      .   S
    O113   Sc4       2.12059      .   S
    O119   Sc2       2.11765      .   S
    O116   Sc16      2.11737      .   S
    O117   Sc0       2.11787      .   S
    O118   Sc1       2.11770      .   S
    H17    O86       0.97238      .   S
    H18    O87       0.97239      .   S
    H19    O88       0.97236      .   S
    H15    O85       0.97238      .   S
    O88    Sc6       2.09066      .   S
    O85    Sc3       2.09066      .   S
    O86    Sc4       2.09092      .   S
    O87    Sc5       2.09095      .   S
    Sc16   O132      2.11979      .   S
    Sc16   O69       2.12107      .   S
    Sc2    O135      2.11982      .   S
    Sc2    O72       2.12091      .   S
    Sc1    O134      2.11989      .   S
    Sc1    O71       2.12104      .   S
    Sc0    O133      2.11959      .   S
    Sc0    O70       2.12097      .   S
    Sc3    O102      2.09076  1_455   S
    Sc3    O136      2.11853      .   S
    Sc3    O73       2.11736      .   S
    Sc6    O101      2.09099      .   S
    Sc6    O139      2.11857      .   S
    Sc6    O76       2.11734      .   S
    Sc4    O103      2.09079  1_455   S
    Sc4    O137      2.11843      .   S
    Sc4    O74       2.11662      .   S
    Sc5    O44       2.09099      .   S
    Sc5    O138      2.11840      .   S
    Sc5    O75       2.11718      .   S
    O103   H23       0.97250      .   S
    O44    H20       0.97238      .   S
    O101   H21       0.97237      .   S
    O102   H22       0.97236      .   S
    O138   C65       1.27573      .   S
    O137   C68       1.27558  1_455   S
    O136   C67       1.27556  1_455   S
    O139   C66       1.27583      .   S
    O133   C66       1.27515      .   S
    O134   C67       1.27507      .   S
    O132   C65       1.27546      .   S
    O135   C68       1.27519      .   S
    O73    C32       1.27562      .   S
    O76    C35       1.27551      .   S
    O74    C33       1.27576      .   S
    O75    C34       1.27564      .   S
    O69    C32       1.27493      .   S
    O72    C35       1.27491      .   S
    O71    C34       1.27490      .   S
    O70    C33       1.27481      .   S
    C61    O126      1.27479      .   S
    C61    O128      1.27557      .   S
    C64    O125      1.27463  1_655   S
    C64    O131      1.27562      .   S
    C62    O127      1.27484      .   S
    C62    O129      1.27561      .   S
    C63    O124      1.27462  1_655   S
    C63    O130      1.27556      .   S
    C36    O77       1.27527      .   S
    C36    O81       1.27579      .   S
    C39    O80       1.27524      .   S
    C39    O84       1.27583      .   S
    C38    O79       1.27517      .   S
    C38    O83       1.27576      .   S
    C37    O78       1.27497      .   S
    C37    O82       1.27578      .   S
    O130   Sc9       2.11711      .   S
    O129   Sc8       2.11695      .   S
    O131   Sc10      2.11708      .   S
    O128   Sc7       2.11703      .   S
    O81    Sc8       2.11772  1_545   S
    O84    Sc9       2.11787      .   S
    O83    Sc10      2.11783  1_545   S
    O82    Sc7       2.11789      .   S
    H24    O120      0.97239      .   S
    H27    O123      0.97226      .   S
    H26    O122      0.97242      .   S
    H25    O121      0.97230      .   S
    O123   Sc10      2.09093      .   S
    O121   Sc8       2.09086      .   S
    O122   Sc9       2.09085      .   S
    O120   Sc7       2.09089      .   S
    O85    Sc16      2.09150      .   S
    O86    Sc0       2.09179      .   S
    O87    Sc1       2.09180      .   S
    O88    Sc2       2.09155      .   S
    O44    Sc16      2.09147      .   S
    O101   Sc0       2.09135      .   S
    O102   Sc1       2.09136      .   S
    O103   Sc2       2.09141      .   S
    O120   Sc12      2.09147  1_556   S
    O121   Sc11      2.09129  1_566   S
    O122   Sc14      2.09143  1_556   S
    O123   Sc13      2.09137  1_566   S
    O140   Sc13      2.09142      .   S
    O141   Sc14      2.09144      .   S
    O142   Sc11      2.09124  1_655   S
    O143   Sc12      2.09118  1_655   S
