# CIF file generated by openbabel 2.4.90, see http://openbabel.sf.net
data_I
_chemical_name_common ''
_cell_length_a 14.788
_cell_length_b 18.115
_cell_length_c 19.486
_cell_angle_alpha 90.005
_cell_angle_beta 89.99
_cell_angle_gamma 90.07
_space_group_name_H-M_alt 'P 1'
_space_group_name_Hall 'P 1'
loop_
    _symmetry_equiv_pos_as_xyz
    x,y,z
loop_
    _atom_site_label
    _atom_site_type_symbol
    _atom_site_fract_x
    _atom_site_fract_y
    _atom_site_fract_z
    _atom_site_occupancy
    C0      C    0.20023   0.17397   0.61076   1.000
    C1      C    0.20023   0.67402   0.61080   1.000
    C2      C    0.70022   0.17402   0.61082   1.000
    C3      C    0.70025   0.67398   0.61077   1.000
    C4      C    0.19852   0.08517   0.89597   1.000
    C5      C    0.19846   0.58518   0.89601   1.000
    C6      C    0.69853   0.08517   0.89601   1.000
    C7      C    0.69853   0.58518   0.89598   1.000
    C8      C    0.45045   0.32600   0.38910   1.000
    C9      C    0.45039   0.82603   0.38916   1.000
    C10     C    0.95038   0.32601   0.38910   1.000
    C11     C    0.95045   0.82602   0.38915   1.000
    C12     C    0.44832   0.41484   0.10395   1.000
    C13     C    0.44829   0.91484   0.10396   1.000
    C14     C    0.94828   0.41483   0.10396   1.000
    C15     C    0.94838   0.91485   0.10396   1.000
    C16     C    0.20030   0.07604   0.11077   1.000
    C17     C    0.20030   0.57603   0.11081   1.000
    C18     C    0.70031   0.07601   0.11082   1.000
    C19     C    0.70029   0.57604   0.11078   1.000
    C20     C    0.19873   0.16483   0.39598   1.000
    C21     C    0.19892   0.66485   0.39603   1.000
    C22     C    0.69880   0.16483   0.39603   1.000
    C23     C    0.69886   0.66483   0.39599   1.000
    C24     C    0.45019   0.42401   0.88915   1.000
    C25     C    0.45021   0.92400   0.88917   1.000
    C26     C    0.95021   0.42400   0.88917   1.000
    C27     C    0.95019   0.92400   0.88916   1.000
    C28     C    0.44866   0.33520   0.60394   1.000
    C29     C    0.44908   0.83519   0.60396   1.000
    C30     C    0.94900   0.33519   0.60395   1.000
    C31     C    0.94881   0.83519   0.60395   1.000
