# CIF file generated by openbabel 2.4.90, see http://openbabel.sf.net
data_I
_chemical_name_common ''
_cell_length_a 14.788
_cell_length_b 18.115
_cell_length_c 19.486
_cell_angle_alpha 90.005
_cell_angle_beta 89.99
_cell_angle_gamma 90.07
_space_group_name_H-M_alt 'P 1'
_space_group_name_Hall 'P 1'
loop_
    _symmetry_equiv_pos_as_xyz
    x,y,z
loop_
    _atom_site_label
    _atom_site_type_symbol
    _atom_site_fract_x
    _atom_site_fract_y
    _atom_site_fract_z
    _atom_site_occupancy
    Zr0     Zr   0.32442   0.25009   0.49972   1.000
    Zr1     Zr   0.32448   0.75013   0.49979   1.000
    Zr2     Zr   0.82445   0.25011   0.49978   1.000
    Zr3     Zr   0.82447   0.75011   0.49975   1.000
    Zr4     Zr   0.07444   0.24991   0.50017   1.000
    Zr5     Zr   0.07446   0.74993   0.50020   1.000
    Zr6     Zr   0.57442   0.24993   0.50021   1.000
    Zr7     Zr   0.57448   0.74991   0.50017   1.000
    Zr8     Zr   0.32427   0.49997   0.99970   1.000
    Zr9     Zr   0.32428   0.99997   0.99968   1.000
    Zr10    Zr   0.82428   0.49996   0.99969   1.000
    Zr11    Zr   0.82429   0.99997   0.99971   1.000
    Zr12    Zr   0.07429   0.00006   0.00024   1.000
    Zr13    Zr   0.07427   0.50005   0.00029   1.000
    Zr14    Zr   0.57429   0.00005   0.00028   1.000
    Zr15    Zr   0.57428   0.50006   0.00025   1.000
    Zr16    Zr   0.19944   0.35742   0.49341   1.000
    Zr17    Zr   0.19945   0.85741   0.49292   1.000
    Zr18    Zr   0.69945   0.35741   0.49301   1.000
    Zr19    Zr   0.69946   0.85741   0.49318   1.000
    Zr20    Zr   0.44907   0.14263   0.50698   1.000
    Zr21    Zr   0.44908   0.64263   0.50686   1.000
    Zr22    Zr   0.94908   0.14263   0.50690   1.000
    Zr23    Zr   0.94909   0.64263   0.50694   1.000
    Zr24    Zr   0.19900   0.39262   0.99303   1.000
    Zr25    Zr   0.19901   0.89262   0.99320   1.000
    Zr26    Zr   0.69901   0.39261   0.99314   1.000
    Zr27    Zr   0.69902   0.89263   0.99308   1.000
    Zr28    Zr   0.44936   0.10739   0.00000   1.000
    Zr29    Zr   0.44936   0.60740   0.00000   1.000
    Zr30    Zr   0.94937   0.10740   0.00000   1.000
    Zr31    Zr   0.94936   0.60740   0.00000   1.000
    Zr32    Zr   0.20023   0.17397   0.61076   1.000
    Zr33    Zr   0.20023   0.67402   0.61080   1.000
    Zr34    Zr   0.70022   0.17402   0.61082   1.000
    Zr35    Zr   0.70025   0.67398   0.61077   1.000
    Zr36    Zr   0.19852   0.08517   0.89597   1.000
    Zr37    Zr   0.19846   0.58518   0.89601   1.000
    Zr38    Zr   0.69853   0.08517   0.89601   1.000
    Zr39    Zr   0.69853   0.58518   0.89598   1.000
    Zr40    Zr   0.45045   0.32600   0.38910   1.000
    Zr41    Zr   0.45039   0.82603   0.38916   1.000
    Zr42    Zr   0.95038   0.32601   0.38910   1.000
    Zr43    Zr   0.95045   0.82602   0.38915   1.000
    Zr44    Zr   0.44832   0.41484   0.10395   1.000
    Zr45    Zr   0.44829   0.91484   0.10396   1.000
    Zr46    Zr   0.94828   0.41483   0.10396   1.000
    Zr47    Zr   0.94838   0.91485   0.10396   1.000
    Zr48    Zr   0.20030   0.07604   0.11077   1.000
    Zr49    Zr   0.20030   0.57603   0.11081   1.000
    Zr50    Zr   0.70031   0.07601   0.11082   1.000
    Zr51    Zr   0.70029   0.57604   0.11078   1.000
    Zr52    Zr   0.19873   0.16483   0.39598   1.000
    Zr53    Zr   0.19892   0.66485   0.39603   1.000
    Zr54    Zr   0.69880   0.16483   0.39603   1.000
    Zr55    Zr   0.69886   0.66483   0.39599   1.000
    Zr56    Zr   0.45019   0.42401   0.88915   1.000
    Zr57    Zr   0.45021   0.92400   0.88917   1.000
    Zr58    Zr   0.95021   0.42400   0.88917   1.000
    Zr59    Zr   0.95019   0.92400   0.88916   1.000
    Zr60    Zr   0.44866   0.33520   0.60394   1.000
    Zr61    Zr   0.44908   0.83519   0.60396   1.000
    Zr62    Zr   0.94900   0.33519   0.60395   1.000
    Zr63    Zr   0.94881   0.83519   0.60395   1.000
    Zr64    Zr   0.27668   0.18394   0.58194   1.000
    Zr65    Zr   0.27668   0.68403   0.58201   1.000
    Zr66    Zr   0.77667   0.18401   0.58201   1.000
    Zr67    Zr   0.77670   0.68398   0.58196   1.000
    Zr68    Zr   0.12414   0.18362   0.58128   1.000
    Zr69    Zr   0.12415   0.68369   0.58130   1.000
    Zr70    Zr   0.62414   0.18369   0.58134   1.000
    Zr71    Zr   0.62416   0.68364   0.58130   1.000
    Zr72    Zr   0.12211   0.07491   0.92480   1.000
    Zr73    Zr   0.12204   0.57492   0.92480   1.000
    Zr74    Zr   0.62211   0.07491   0.92483   1.000
    Zr75    Zr   0.62212   0.57492   0.92481   1.000
    Zr76    Zr   0.27461   0.07484   0.92527   1.000
    Zr77    Zr   0.27454   0.57485   0.92531   1.000
    Zr78    Zr   0.77461   0.07484   0.92530   1.000
    Zr79    Zr   0.77461   0.57485   0.92528   1.000
    Zr80    Zr   0.19941   0.30389   0.49706   1.000
    Zr81    Zr   0.19944   0.80392   0.49710   1.000
    Zr82    Zr   0.69942   0.30391   0.49712   1.000
    Zr83    Zr   0.69945   0.80390   0.49705   1.000
    Zr84    Zr   0.02682   0.31595   0.41785   1.000
    Zr85    Zr   0.02690   0.81594   0.41784   1.000
    Zr86    Zr   0.52692   0.31594   0.41782   1.000
    Zr87    Zr   0.52685   0.81595   0.41785   1.000
    Zr88    Zr   0.37439   0.31641   0.41870   1.000
    Zr89    Zr   0.37432   0.81646   0.41875   1.000
    Zr90    Zr   0.87431   0.31644   0.41874   1.000
    Zr91    Zr   0.87439   0.81644   0.41874   1.000
    Zr92    Zr   0.37191   0.42512   0.07520   1.000
    Zr93    Zr   0.37189   0.92512   0.07520   1.000
    Zr94    Zr   0.87188   0.42511   0.07520   1.000
    Zr95    Zr   0.87197   0.92513   0.07520   1.000
    Zr96    Zr   0.02436   0.42514   0.07461   1.000
    Zr97    Zr   0.02446   0.92515   0.07460   1.000
    Zr98    Zr   0.52441   0.42514   0.07458   1.000
    Zr99    Zr   0.52438   0.92515   0.07461   1.000
    Zr100   Zr   0.44930   0.19612   0.50288   1.000
    Zr101   Zr   0.44933   0.69614   0.50289   1.000
    Zr102   Zr   0.94931   0.19613   0.50289   1.000
    Zr103   Zr   0.94934   0.69613   0.50280   1.000
    Zr104   Zr   0.27673   0.06607   0.08190   1.000
    Zr105   Zr   0.27672   0.56605   0.08200   1.000
    Zr106   Zr   0.77673   0.06603   0.08202   1.000
    Zr107   Zr   0.77671   0.56607   0.08196   1.000
    Zr108   Zr   0.12420   0.06640   0.08127   1.000
    Zr109   Zr   0.12419   0.56637   0.08133   1.000
    Zr110   Zr   0.62420   0.06637   0.08132   1.000
    Zr111   Zr   0.62417   0.56639   0.08100   1.000
    Zr112   Zr   0.12236   0.17511   0.42481   1.000
    Zr113   Zr   0.12258   0.67513   0.42490   1.000
    Zr114   Zr   0.62244   0.17512   0.42480   1.000
    Zr115   Zr   0.62251   0.67512   0.42485   1.000
    Zr116   Zr   0.27485   0.17514   0.42526   1.000
    Zr117   Zr   0.27508   0.67514   0.42527   1.000
    Zr118   Zr   0.77494   0.17514   0.42530   1.000
    Zr119   Zr   0.77500   0.67514   0.42525   1.000
    Zr120   Zr   0.19917   0.44612   0.99708   1.000
    Zr121   Zr   0.19918   0.94614   0.99700   1.000
    Zr122   Zr   0.69918   0.44613   0.99707   1.000
    Zr123   Zr   0.69919   0.94613   0.99700   1.000
    Zr124   Zr   0.02662   0.43394   0.91801   1.000
    Zr125   Zr   0.02661   0.93397   0.91798   1.000
    Zr126   Zr   0.52663   0.43397   0.91795   1.000
    Zr127   Zr   0.52663   0.93396   0.91801   1.000
    Zr128   Zr   0.37410   0.43368   0.91863   1.000
    Zr129   Zr   0.37410   0.93367   0.91862   1.000
    Zr130   Zr   0.87410   0.43366   0.91862   1.000
    Zr131   Zr   0.87409   0.93367   0.91863   1.000
    Zr132   Zr   0.37226   0.32492   0.57510   1.000
    Zr133   Zr   0.37274   0.82490   0.57506   1.000
    Zr134   Zr   0.87265   0.32490   0.57508   1.000
    Zr135   Zr   0.87242   0.82492   0.57511   1.000
    Zr136   Zr   0.02514   0.32489   0.57472   1.000
    Zr137   Zr   0.02491   0.82488   0.57467   1.000
    Zr138   Zr   0.52476   0.32487   0.57464   1.000
    Zr139   Zr   0.52524   0.82489   0.57474   1.000
    Zr140   Zr   0.44931   0.05389   0.00289   1.000
    Zr141   Zr   0.44930   0.55390   0.00289   1.000
    Zr142   Zr   0.94932   0.05389   0.00289   1.000
    Zr143   Zr   0.94931   0.55389   0.00290   1.000
    O144    O    0.44934   0.08064   0.00145   1.000
    O145    O    0.44933   0.58065   0.00145   1.000
    O146    O    0.94935   0.08065   0.00145   1.000
    O147    O    0.94934   0.58065   0.00145   1.000
    O148    O    0.04937   0.96261   0.03742   1.000
    O149    O    0.09925   0.03323   0.04076   1.000
    O150    O    0.05045   0.96701   0.95911   1.000
    O151    O    0.09820   0.03748   0.96252   1.000
    O152    O    0.54935   0.46260   0.03741   1.000
    O153    O    0.59923   0.53322   0.04063   1.000
    O154    O    0.55046   0.46702   0.95910   1.000
    O155    O    0.59820   0.53749   0.96253   1.000
    O156    O    0.54934   0.96260   0.03745   1.000
    O157    O    0.59925   0.03321   0.04080   1.000
    O158    O    0.55046   0.96700   0.95915   1.000
    O159    O    0.59820   0.03748   0.96256   1.000
    O160    O    0.04931   0.46260   0.03745   1.000
    O161    O    0.09923   0.53321   0.04081   1.000
    O162    O    0.05045   0.46700   0.95915   1.000
    O163    O    0.09816   0.53749   0.96255   1.000
    O164    O    0.88681   0.02693   0.00130   1.000
    O165    O    0.38679   0.52693   0.00129   1.000
    O166    O    0.38680   0.02693   0.00128   1.000
    O167    O    0.88680   0.52693   0.00129   1.000
    O168    O    0.48637   0.41999   0.08926   1.000
    O169    O    0.98642   0.92000   0.08928   1.000
    O170    O    0.48634   0.92000   0.08929   1.000
    O171    O    0.98632   0.41999   0.08929   1.000
    O172    O    0.91018   0.91999   0.08958   1.000
    O173    O    0.84813   0.96255   0.03746   1.000
    O174    O    0.91008   0.41997   0.08958   1.000
    O175    O    0.84808   0.46254   0.03745   1.000
    O176    O    0.41009   0.91999   0.08958   1.000
    O177    O    0.34809   0.96255   0.03744   1.000
    O178    O    0.41012   0.41998   0.08958   1.000
    O179    O    0.34809   0.46254   0.03745   1.000
    O180    O    0.66223   0.57121   0.09589   1.000
    O181    O    0.16225   0.07122   0.09602   1.000
    O182    O    0.66226   0.07119   0.09607   1.000
    O183    O    0.16224   0.57120   0.09607   1.000
    O184    O    0.23852   0.07105   0.09634   1.000
    O185    O    0.30051   0.03302   0.04079   1.000
    O186    O    0.73850   0.57105   0.09637   1.000
    O187    O    0.80049   0.53302   0.04082   1.000
    O188    O    0.23851   0.57104   0.09641   1.000
    O189    O    0.30049   0.53301   0.04085   1.000
    O190    O    0.73852   0.07102   0.09642   1.000
    O191    O    0.80051   0.03300   0.04087   1.000
    O192    O    0.98860   0.32098   0.40348   1.000
    O193    O    0.91234   0.32123   0.40392   1.000
    O194    O    0.48869   0.32097   0.40346   1.000
    O195    O    0.41242   0.32121   0.40390   1.000
    O196    O    0.98868   0.82098   0.40350   1.000
    O197    O    0.91242   0.82123   0.40394   1.000
    O198    O    0.48862   0.82099   0.40351   1.000
    O199    O    0.41236   0.82125   0.40396   1.000
    O200    O    0.16055   0.16997   0.41040   1.000
    O201    O    0.23679   0.16998   0.41062   1.000
    O202    O    0.66068   0.66997   0.41042   1.000
    O203    O    0.73693   0.66999   0.41062   1.000
    O204    O    0.16075   0.66999   0.41047   1.000
    O205    O    0.23700   0.66999   0.41065   1.000
    O206    O    0.66062   0.16997   0.41042   1.000
    O207    O    0.73687   0.16999   0.41067   1.000
    O208    O    0.55067   0.28294   0.45902   1.000
    O209    O    0.05068   0.78293   0.45902   1.000
    O210    O    0.05063   0.28293   0.45901   1.000
    O211    O    0.55067   0.78293   0.45901   1.000
    O212    O    0.34941   0.28325   0.45921   1.000
    O213    O    0.84938   0.28328   0.45926   1.000
    O214    O    0.84943   0.78327   0.45925   1.000
    O215    O    0.34940   0.78330   0.45927   1.000
    O216    O    0.59843   0.21253   0.46251   1.000
    O217    O    0.09840   0.21251   0.46249   1.000
    O218    O    0.59849   0.71251   0.46251   1.000
    O219    O    0.09852   0.71253   0.46255   1.000
    O220    O    0.79973   0.71262   0.46250   1.000
    O221    O    0.29964   0.21261   0.46249   1.000
    O222    O    0.29978   0.71264   0.46253   1.000
    O223    O    0.79970   0.21263   0.46254   1.000
    O224    O    0.19945   0.83066   0.49501   1.000
    O225    O    0.69944   0.33066   0.49507   1.000
    O226    O    0.69946   0.83066   0.49511   1.000
    O227    O    0.19943   0.33066   0.49524   1.000
    O228    O    0.63697   0.77690   0.49861   1.000
    O229    O    0.13692   0.27690   0.49862   1.000
    O230    O    0.13695   0.77692   0.49865   1.000
    O231    O    0.63692   0.27692   0.49867   1.000
    O232    O    0.34834   0.28750   0.53741   1.000
    O233    O    0.30055   0.21701   0.54083   1.000
    O234    O    0.84844   0.78751   0.53743   1.000
    O235    O    0.80058   0.71704   0.54086   1.000
    O236    O    0.84855   0.28751   0.53743   1.000
    O237    O    0.80056   0.21706   0.54090   1.000
    O238    O    0.34861   0.78752   0.53743   1.000
    O239    O    0.30058   0.71708   0.54090   1.000
    O240    O    0.01187   0.22302   0.50153   1.000
    O241    O    0.04979   0.28740   0.53744   1.000
    O242    O    0.09929   0.21677   0.54073   1.000
    O243    O    0.51191   0.72302   0.50153   1.000
    O244    O    0.54986   0.78740   0.53746   1.000
    O245    O    0.59932   0.71677   0.54074   1.000
    O246    O    0.01190   0.72303   0.50150   1.000
    O247    O    0.04968   0.78740   0.53744   1.000
    O248    O    0.09930   0.71681   0.54075   1.000
    O249    O    0.51186   0.22303   0.50155   1.000
    O250    O    0.54959   0.28740   0.53743   1.000
    O251    O    0.59928   0.21681   0.54078   1.000
    O252    O    0.94921   0.66938   0.50487   1.000
    O253    O    0.44918   0.16938   0.50493   1.000
    O254    O    0.44921   0.66938   0.50487   1.000
    O255    O    0.94920   0.16938   0.50490   1.000
    O256    O    0.48671   0.33003   0.58929   1.000
    O257    O    0.98686   0.83003   0.58931   1.000
    O258    O    0.98707   0.33004   0.58934   1.000
    O259    O    0.48716   0.83004   0.58935   1.000
    O260    O    0.41091   0.83005   0.58951   1.000
    O261    O    0.91083   0.33004   0.58952   1.000
    O262    O    0.41046   0.33006   0.58952   1.000
    O263    O    0.91062   0.83006   0.58953   1.000
    O264    O    0.16218   0.17880   0.59602   1.000
    O265    O    0.66220   0.67881   0.59604   1.000
    O266    O    0.16219   0.67886   0.59605   1.000
    O267    O    0.66218   0.17886   0.59608   1.000
    O268    O    0.23845   0.17895   0.59635   1.000
    O269    O    0.73847   0.67898   0.59637   1.000
    O270    O    0.73845   0.17901   0.59642   1.000
    O271    O    0.23845   0.67903   0.59641   1.000
    O272    O    0.48841   0.42899   0.90355   1.000
    O273    O    0.41214   0.42884   0.90389   1.000
    O274    O    0.98840   0.92898   0.90357   1.000
    O275    O    0.91214   0.92884   0.90390   1.000
    O276    O    0.48842   0.92898   0.90359   1.000
    O277    O    0.41216   0.92883   0.90390   1.000
    O278    O    0.98842   0.42897   0.90359   1.000
    O279    O    0.91216   0.42883   0.90390   1.000
    O280    O    0.16032   0.08004   0.91038   1.000
    O281    O    0.23656   0.08001   0.91062   1.000
    O282    O    0.66032   0.58005   0.91040   1.000
    O283    O    0.73657   0.58002   0.91063   1.000
    O284    O    0.66032   0.08004   0.91042   1.000
    O285    O    0.73657   0.08001   0.91066   1.000
    O286    O    0.16025   0.58005   0.91041   1.000
    O287    O    0.23650   0.58002   0.91066   1.000
    O288    O    0.84919   0.46681   0.95916   1.000
    O289    O    0.34919   0.96682   0.95915   1.000
    O290    O    0.84919   0.96682   0.95917   1.000
    O291    O    0.34918   0.46682   0.95917   1.000
    O292    O    0.29944   0.03741   0.96248   1.000
    O293    O    0.79945   0.53741   0.96249   1.000
    O294    O    0.79945   0.03741   0.96251   1.000
    O295    O    0.29941   0.53741   0.96251   1.000
    O296    O    0.19909   0.41937   0.99506   1.000
    O297    O    0.69911   0.91938   0.99504   1.000
    O298    O    0.69910   0.41937   0.99511   1.000
    O299    O    0.19910   0.91938   0.99510   1.000
    O300    O    0.76174   0.97305   0.99836   1.000
    O301    O    0.26173   0.97305   0.99834   1.000
    O302    O    0.76173   0.47304   0.99838   1.000
    O303    O    0.26172   0.47305   0.99839   1.000
    O304    O    0.26191   0.27699   0.49839   1.000
    O305    O    0.26196   0.77703   0.49844   1.000
    O306    O    0.76194   0.27701   0.49845   1.000
    O307    O    0.76196   0.77700   0.49840   1.000
    O308    O    0.38686   0.22310   0.50130   1.000
    O309    O    0.38691   0.72314   0.50134   1.000
    O310    O    0.88688   0.22312   0.50134   1.000
    O311    O    0.88690   0.72312   0.50128   1.000
    O312    O    0.13672   0.47309   0.99869   1.000
    O313    O    0.13674   0.97310   0.99862   1.000
    O314    O    0.63673   0.47310   0.99866   1.000
    O315    O    0.63674   0.97309   0.99864   1.000
    O316    O    0.51180   0.02697   0.00159   1.000
    O317    O    0.51179   0.52698   0.00157   1.000
    O318    O    0.01181   0.02698   0.00157   1.000
    O319    O    0.01179   0.52697   0.00159   1.000
    N320    N    0.69939   0.63002   0.75351   1.000
    O321    O    0.69970   0.64610   0.70051   1.000
    O322    O    0.69908   0.61372   0.80642   1.000
    N323    N    0.19950   0.12001   0.25350   1.000
    O324    O    0.19979   0.10393   0.20051   1.000
    O325    O    0.19922   0.13630   0.30643   1.000
    N326    N    0.19956   0.62001   0.25355   1.000
    O327    O    0.19932   0.63631   0.30648   1.000
    O328    O    0.19983   0.60393   0.20055   1.000
    N329    N    0.69954   0.62001   0.25351   1.000
    O330    O    0.69929   0.63630   0.30644   1.000
    O331    O    0.69981   0.60393   0.20051   1.000
    N332    N    0.69938   0.13002   0.75353   1.000
    O333    O    0.69907   0.11371   0.80647   1.000
    O334    O    0.69968   0.14611   0.70052   1.000
    N335    N    0.44938   0.37000   0.24641   1.000
    O336    O    0.44899   0.38630   0.19348   1.000
    O337    O    0.44977   0.35391   0.29940   1.000
    N338    N    0.19935   0.63002   0.75354   1.000
    O339    O    0.19903   0.61372   0.80647   1.000
    O340    O    0.19967   0.64611   0.70054   1.000
    N341    N    0.44934   0.87001   0.24633   1.000
    O342    O    0.44895   0.88631   0.19345   1.000
    O343    O    0.44973   0.85393   0.29938   1.000
    N344    N    0.94932   0.37000   0.24632   1.000
    O345    O    0.94894   0.38630   0.19345   1.000
    O346    O    0.94971   0.35391   0.29934   1.000
    N347    N    0.94941   0.87001   0.24642   1.000
    O348    O    0.94979   0.85393   0.29942   1.000
    O349    O    0.94903   0.88631   0.19350   1.000
    N350    N    0.19938   0.13001   0.75347   1.000
    O351    O    0.19907   0.11371   0.80642   1.000
    O352    O    0.19969   0.14609   0.70049   1.000
    N353    N    0.94947   0.88003   0.74541   1.000
    O354    O    0.94973   0.89611   0.79890   1.000
    O355    O    0.94923   0.86373   0.69299   1.000
    N356    N    0.44942   0.38003   0.74641   1.000
    O357    O    0.44914   0.36373   0.69348   1.000
    O358    O    0.44969   0.39611   0.79941   1.000
    N359    N    0.69953   0.12000   0.25349   1.000
    O360    O    0.69926   0.13630   0.30645   1.000
    O361    O    0.69981   0.10391   0.20045   1.000
    N362    N    0.44958   0.88002   0.74642   1.000
    O363    O    0.44939   0.86372   0.69349   1.000
    O364    O    0.44980   0.89610   0.79942   1.000
    N365    N    0.94955   0.38002   0.74643   1.000
    O366    O    0.94935   0.36372   0.69350   1.000
    O367    O    0.94979   0.39611   0.79943   1.000
loop_
    _geom_bond_atom_site_label_1
    _geom_bond_atom_site_label_2
    _geom_bond_distance
    _geom_bond_site_symmetry_2
    _ccdc_geom_bond_type
    Zr28   O144      0.48545      .   S
    Zr140  O144      0.48545      .   S
    Zr29   O145      0.48540      .   S
    Zr141  O145      0.48540      .   S
    Zr30   O146      0.48548      .   S
    Zr142  O146      0.48548      .   S
    Zr31   O147      0.48548      .   S
    Zr143  O147      0.48548      .   S
    Zr12   O148      1.05848  1_545   S
    Zr97   O148      1.05848      .   S
    Zr12   O149      1.05827      .   S
    Zr108  O149      1.05827      .   S
    Zr12   O150      1.06045  1_544   S
    Zr125  O150      1.06045      .   S
    Zr12   O151      1.06031  1_554   S
    Zr72   O151      1.06031      .   S
    Zr15   O152      1.05848      .   S
    Zr98   O152      1.05848      .   S
    Zr15   O153      1.05612      .   S
    Zr111  O153      1.05612      .   S
    Zr15   O154      1.06065  1_554   S
    Zr126  O154      1.06065      .   S
    Zr15   O155      1.06037  1_554   S
    Zr75   O155      1.06037      .   S
    Zr14   O156      1.05843  1_545   S
    Zr99   O156      1.05843      .   S
    Zr14   O157      1.05824      .   S
    Zr110  O157      1.05824      .   S
    Zr14   O158      1.06047  1_544   S
    Zr127  O158      1.06047      .   S
    Zr14   O159      1.06041  1_554   S
    Zr74   O159      1.06041      .   S
    Zr13   O160      1.05846      .   S
    Zr96   O160      1.05846      .   S
    Zr13   O161      1.05826      .   S
    Zr109  O161      1.05826      .   S
    Zr13   O162      1.06060  1_554   S
    Zr124  O162      1.06060      .   S
    Zr13   O163      1.06063  1_554   S
    Zr73   O163      1.06063      .   S
    Zr142  O164      1.04547      .   S
    Zr11   O164      1.04547  1_566   S
    Zr141  O165      1.04555      .   S
    Zr8    O165      1.04555  1_556   S
    Zr140  O166      1.04547      .   S
    Zr9    O166      1.04547  1_566   S
    Zr143  O167      1.04553      .   S
    Zr10   O167      1.04553  1_556   S
    Zr98   O168      0.63790      .   S
    Zr44   O168      0.63790      .   S
    Zr97   O169      0.63777  1_455   S
    Zr47   O169      0.63777      .   S
    Zr99   O170      0.63785      .   S
    Zr45   O170      0.63785      .   S
    Zr96   O171      0.63774  1_455   S
    Zr46   O171      0.63774      .   S
    Zr95   O172      0.63761      .   S
    Zr47   O172      0.63761      .   S
    Zr95   O173      1.06086      .   S
    Zr11   O173      1.06086  1_556   S
    Zr94   O174      0.63759      .   S
    Zr46   O174      0.63759      .   S
    Zr94   O175      1.06088      .   S
    Zr10   O175      1.06088  1_556   S
    Zr93   O176      0.63759      .   S
    Zr45   O176      0.63759      .   S
    Zr93   O177      1.06095      .   S
    Zr9    O177      1.06095  1_556   S
    Zr92   O178      0.63759      .   S
    Zr44   O178      0.63759      .   S
    Zr92   O179      1.06091      .   S
    Zr8    O179      1.06091  1_556   S
    Zr111  O180      0.63912      .   S
    Zr51   O180      0.63912      .   S
    Zr108  O181      0.63783      .   S
    Zr48   O181      0.63783      .   S
    Zr110  O182      0.63784      .   S
    Zr50   O182      0.63784      .   S
    Zr109  O183      0.63780      .   S
    Zr49   O183      0.63780      .   S
    Zr104  O184      0.63771      .   S
    Zr48   O184      0.63771      .   S
    Zr104  O185      1.06022      .   S
    Zr9    O185      1.06022  1_566   S
    Zr107  O186      0.63745      .   S
    Zr51   O186      0.63745      .   S
    Zr107  O187      1.06070      .   S
    Zr10   O187      1.06070  1_556   S
    Zr105  O188      0.63741      .   S
    Zr49   O188      0.63741      .   S
    Zr105  O189      1.06078      .   S
    Zr8    O189      1.06078  1_556   S
    Zr106  O190      0.63742      .   S
    Zr50   O190      0.63742      .   S
    Zr106  O191      1.06077      .   S
    Zr11   O191      1.06077  1_566   S
    Zr42   O192      0.63753      .   S
    Zr84   O192      0.63753  1_455   S
    Zr42   O193      0.63804      .   S
    Zr90   O193      0.63804      .   S
    Zr40   O194      0.63759      .   S
    Zr86   O194      0.63759      .   S
    Zr40   O195      0.63780      .   S
    Zr88   O195      0.63780      .   S
    Zr43   O196      0.63733      .   S
    Zr85   O196      0.63733  1_455   S
    Zr43   O197      0.63779      .   S
    Zr91   O197      0.63779      .   S
    Zr41   O198      0.63741      .   S
    Zr87   O198      0.63741      .   S
    Zr41   O199      0.63781      .   S
    Zr89   O199      0.63781      .   S
    Zr52   O200      0.63757      .   S
    Zr112  O200      0.63757      .   S
    Zr52   O201      0.63784      .   S
    Zr116  O201      0.63784      .   S
    Zr55   O202      0.63759      .   S
    Zr115  O202      0.63759      .   S
    Zr55   O203      0.63788      .   S
    Zr119  O203      0.63788      .   S
    Zr53   O204      0.63757      .   S
    Zr113  O204      0.63757      .   S
    Zr53   O205      0.63788      .   S
    Zr117  O205      0.63788      .   S
    Zr54   O206      0.63727      .   S
    Zr114  O206      0.63727      .   S
    Zr54   O207      0.63790      .   S
    Zr118  O207      0.63790      .   S
    Zr86   O208      1.06104      .   S
    Zr6    O208      1.06104      .   S
    Zr85   O209      1.06101      .   S
    Zr5    O209      1.06101      .   S
    Zr84   O210      1.06101      .   S
    Zr4    O210      1.06101      .   S
    Zr87   O211      1.06105      .   S
    Zr7    O211      1.06105      .   S
    Zr88   O212      1.05830      .   S
    Zr0    O212      1.05830      .   S
    Zr90   O213      1.05812      .   S
    Zr2    O213      1.05812      .   S
    Zr91   O214      1.05814      .   S
    Zr3    O214      1.05814      .   S
    Zr89   O215      1.05812      .   S
    Zr1    O215      1.05812      .   S
    Zr114  O216      1.06089      .   S
    Zr6    O216      1.06089      .   S
    Zr112  O217      1.06022      .   S
    Zr4    O217      1.06022      .   S
    Zr115  O218      1.06016      .   S
    Zr7    O218      1.06016      .   S
    Zr113  O219      1.06030      .   S
    Zr5    O219      1.06030      .   S
    Zr119  O220      1.05882      .   S
    Zr3    O220      1.05882      .   S
    Zr116  O221      1.05869      .   S
    Zr0    O221      1.05869      .   S
    Zr117  O222      1.05894      .   S
    Zr1    O222      1.05894      .   S
    Zr118  O223      1.05885      .   S
    Zr2    O223      1.05885      .   S
    Zr17   O224      0.48619      .   S
    Zr81   O224      0.48619      .   S
    Zr18   O225      0.48620      .   S
    Zr82   O225      0.48620      .   S
    Zr19   O226      0.48618      .   S
    Zr83   O226      0.48618      .   S
    Zr16   O227      0.48619      .   S
    Zr80   O227      0.48619      .   S
    Zr83   O228      1.04533      .   S
    Zr7    O228      1.04533      .   S
    Zr80   O229      1.04533      .   S
    Zr4    O229      1.04533      .   S
    Zr81   O230      1.04546      .   S
    Zr5    O230      1.04546      .   S
    Zr82   O231      1.04547      .   S
    Zr6    O231      1.04547      .   S
    Zr0    O232      1.05989      .   S
    Zr132  O232      1.05989      .   S
    Zr0    O233      1.06054      .   S
    Zr64   O233      1.06054      .   S
    Zr3    O234      1.05991      .   S
    Zr135  O234      1.05991      .   S
    Zr3    O235      1.06046      .   S
    Zr67   O235      1.06046      .   S
    Zr2    O236      1.05994      .   S
    Zr134  O236      1.05994      .   S
    Zr2    O237      1.06052      .   S
    Zr66   O237      1.06052      .   S
    Zr1    O238      1.05980      .   S
    Zr133  O238      1.05980      .   S
    Zr1    O239      1.06049      .   S
    Zr65   O239      1.06049      .   S
    Zr4    O240      1.04538      .   S
    Zr102  O240      1.04538  1_655   S
    Zr4    O241      1.05926      .   S
    Zr136  O241      1.05926      .   S
    Zr4    O242      1.05868      .   S
    Zr68   O242      1.05868      .   S
    Zr7    O243      1.04549      .   S
    Zr101  O243      1.04549      .   S
    Zr7    O244      1.05928      .   S
    Zr139  O244      1.05928      .   S
    Zr7    O245      1.05867      .   S
    Zr71   O245      1.05867      .   S
    Zr5    O246      1.04539      .   S
    Zr103  O246      1.04539  1_655   S
    Zr5    O247      1.05921      .   S
    Zr137  O247      1.05921      .   S
    Zr5    O248      1.05831      .   S
    Zr69   O248      1.05831      .   S
    Zr6    O249      1.04549      .   S
    Zr100  O249      1.04549      .   S
    Zr6    O250      1.05920      .   S
    Zr138  O250      1.05920      .   S
    Zr6    O251      1.05859      .   S
    Zr70   O251      1.05859      .   S
    Zr103  O252      0.48625      .   S
    Zr23   O252      0.48625      .   S
    Zr100  O253      0.48619      .   S
    Zr20   O253      0.48619      .   S
    Zr101  O254      0.48619      .   S
    Zr21   O254      0.48619      .   S
    Zr102  O255      0.48618      .   S
    Zr22   O255      0.48618      .   S
    Zr138  O256      0.63786      .   S
    Zr60   O256      0.63786      .   S
    Zr137  O257      0.63779  1_455   S
    Zr63   O257      0.63779      .   S
    Zr136  O258      0.63778  1_455   S
    Zr62   O258      0.63778      .   S
    Zr139  O259      0.63791      .   S
    Zr61   O259      0.63791      .   S
    Zr133  O260      0.63757      .   S
    Zr61   O260      0.63757      .   S
    Zr134  O261      0.63753      .   S
    Zr62   O261      0.63753      .   S
    Zr132  O262      0.63773      .   S
    Zr60   O262      0.63773      .   S
    Zr135  O263      0.63760      .   S
    Zr63   O263      0.63760      .   S
    Zr68   O264      0.63781      .   S
    Zr32   O264      0.63781      .   S
    Zr71   O265      0.63775      .   S
    Zr35   O265      0.63775      .   S
    Zr69   O266      0.63788      .   S
    Zr33   O266      0.63788      .   S
    Zr70   O267      0.63782      .   S
    Zr34   O267      0.63782      .   S
    Zr64   O268      0.63747      .   S
    Zr32   O268      0.63747      .   S
    Zr67   O269      0.63746      .   S
    Zr35   O269      0.63746      .   S
    Zr66   O270      0.63745      .   S
    Zr34   O270      0.63745      .   S
    Zr65   O271      0.63741      .   S
    Zr33   O271      0.63741      .   S
    Zr56   O272      0.63739      .   S
    Zr126  O272      0.63739      .   S
    Zr56   O273      0.63778      .   S
    Zr128  O273      0.63778      .   S
    Zr59   O274      0.63731      .   S
    Zr125  O274      0.63731  1_455   S
    Zr59   O275      0.63781      .   S
    Zr131  O275      0.63781      .   S
    Zr57   O276      0.63742      .   S
    Zr127  O276      0.63742      .   S
    Zr57   O277      0.63780      .   S
    Zr129  O277      0.63780      .   S
    Zr58   O278      0.63731      .   S
    Zr124  O278      0.63731  1_455   S
    Zr58   O279      0.63778      .   S
    Zr130  O279      0.63778      .   S
    Zr36   O280      0.63763      .   S
    Zr72   O280      0.63763      .   S
    Zr36   O281      0.63789      .   S
    Zr76   O281      0.63789      .   S
    Zr39   O282      0.63762      .   S
    Zr75   O282      0.63762      .   S
    Zr39   O283      0.63791      .   S
    Zr79   O283      0.63791      .   S
    Zr38   O284      0.63759      .   S
    Zr74   O284      0.63759      .   S
    Zr38   O285      0.63788      .   S
    Zr78   O285      0.63788      .   S
    Zr37   O286      0.63748      .   S
    Zr73   O286      0.63748      .   S
    Zr37   O287      0.63789      .   S
    Zr77   O287      0.63789      .   S
    Zr130  O288      1.05855      .   S
    Zr10   O288      1.05855      .   S
    Zr129  O289      1.05847      .   S
    Zr9    O289      1.05847      .   S
    Zr131  O290      1.05854      .   S
    Zr11   O290      1.05854      .   S
    Zr128  O291      1.05851      .   S
    Zr8    O291      1.05851      .   S
    Zr76   O292      1.05886      .   S
    Zr9    O292      1.05886  1_565   S
    Zr79   O293      1.05893      .   S
    Zr10   O293      1.05893      .   S
    Zr78   O294      1.05891      .   S
    Zr11   O294      1.05891  1_565   S
    Zr77   O295      1.05894      .   S
    Zr8    O295      1.05894      .   S
    Zr24   O296      0.48619      .   S
    Zr120  O296      0.48619      .   S
    Zr27   O297      0.48613      .   S
    Zr123  O297      0.48613      .   S
    Zr26   O298      0.48621      .   S
    Zr122  O298      0.48621      .   S
    Zr25   O299      0.48615      .   S
    Zr121  O299      0.48615      .   S
    Zr123  O300      1.04546      .   S
    Zr11   O300      1.04546      .   S
    Zr121  O301      1.04543      .   S
    Zr9    O301      1.04543      .   S
    Zr122  O302      1.04543      .   S
    Zr10   O302      1.04543      .   S
    Zr120  O303      1.04544      .   S
    Zr8    O303      1.04544      .   S
    Zr80   O304      1.04575      .   S
    Zr0    O304      1.04575      .   S
    Zr81   O305      1.04590      .   S
    Zr1    O305      1.04590      .   S
    Zr82   O306      1.04590      .   S
    Zr2    O306      1.04590      .   S
    Zr83   O307      1.04577      .   S
    Zr3    O307      1.04577      .   S
    Zr100  O308      1.04574      .   S
    Zr0    O308      1.04574      .   S
    Zr101  O309      1.04568      .   S
    Zr1    O309      1.04568      .   S
    Zr102  O310      1.04568      .   S
    Zr2    O310      1.04568      .   S
    Zr103  O311      1.04570      .   S
    Zr3    O311      1.04570      .   S
    Zr120  O312      1.04573      .   S
    Zr13   O312      1.04573  1_554   S
    Zr121  O313      1.04565      .   S
    Zr12   O313      1.04565  1_544   S
    Zr122  O314      1.04571      .   S
    Zr15   O314      1.04571  1_554   S
    Zr123  O315      1.04568      .   S
    Zr14   O315      1.04568  1_544   S
    Zr140  O316      1.04571      .   S
    Zr14   O316      1.04571      .   S
    Zr141  O317      1.04572      .   S
    Zr15   O317      1.04572      .   S
    Zr142  O318      1.04562  1_655   S
    Zr12   O318      1.04562      .   S
    Zr143  O319      1.04559  1_655   S
    Zr13   O319      1.04559      .   S
    N320   O321      1.07304      .   S
    Zr35   O321      1.82023      .   S
    N320   O322      1.07259      .   S
    Zr39   O322      1.82013      .   S
    N323   O324      1.07298      .   S
    Zr48   O324      1.82009      .   S
    N323   O325      1.07280      .   S
    Zr52   O325      1.81977      .   S
    N326   O327      1.07287      .   S
    Zr53   O327      1.81983      .   S
    N326   O328      1.07307      .   S
    Zr49   O328      1.82020      .   S
    N329   O330      1.07289      .   S
    Zr55   O330      1.81978      .   S
    N329   O331      1.07293      .   S
    Zr51   O331      1.82005      .   S
    N332   O333      1.07293      .   S
    Zr38   O333      1.81988      .   S
    N332   O334      1.07337      .   S
    Zr34   O334      1.81967      .   S
    N335   O336      1.07275      .   S
    Zr44   O336      1.81969      .   S
    N335   O337      1.07294      .   S
    Zr40   O337      1.81970      .   S
    N338   O339      1.07290      .   S
    Zr37   O339      1.81986      .   S
    N338   O340      1.07309      .   S
    Zr33   O340      1.82033      .   S
    N341   O342      1.07194      .   S
    Zr45   O342      1.81889      .   S
    N341   O343      1.07399      .   S
    Zr41   O343      1.82109      .   S
    N344   O345      1.07184      .   S
    Zr46   O345      1.81879      .   S
    N344   O346      1.07339      .   S
    Zr42   O346      1.82078      .   S
    N347   O348      1.07304      .   S
    Zr43   O348      1.82017      .   S
    N347   O349      1.07280      .   S
    Zr47   O349      1.81977      .   S
    N350   O351      1.07310      .   S
    Zr36   O351      1.82005      .   S
    N350   O352      1.07283      .   S
    Zr32   O352      1.81997      .   S
    N353   O354      1.08213      .   S
    Zr59   O354      1.83001      .   S
    N353   O355      1.06335      .   S
    Zr63   O355      1.81028      .   S
    N356   O357      1.07279      .   S
    Zr60   O357      1.81967      .   S
    N356   O358      1.07308      .   S
    Zr56   O358      1.82023      .   S
    N359   O360      1.07340      .   S
    Zr54   O360      1.82038      .   S
    N359   O361      1.07384      .   S
    Zr50   O361      1.81817      .   S
    N362   O363      1.07266      .   S
    Zr61   O363      1.81955      .   S
    N362   O364      1.07319      .   S
    Zr57   O364      1.82032      .   S
    N365   O366      1.07282      .   S
    Zr62   O366      1.81980      .   S
    N365   O367      1.07307      .   S
    Zr58   O367      1.82019      .   S
