# CIF file generated by openbabel 2.4.90, see http://openbabel.sf.net
data_I
_chemical_name_common ''
_cell_length_a 13.248
_cell_length_b 14.544
_cell_length_c 18.124
_cell_angle_alpha 89.98
_cell_angle_beta 89.858
_cell_angle_gamma 89.997
_space_group_name_H-M_alt 'P 1'
_space_group_name_Hall 'P 1'
loop_
    _symmetry_equiv_pos_as_xyz
    x,y,z
loop_
    _atom_site_label
    _atom_site_type_symbol
    _atom_site_fract_x
    _atom_site_fract_y
    _atom_site_fract_z
    _atom_site_occupancy
    C0      C    0.86643   0.55093   0.33250   1.000
    C1      C    0.63322   0.55093   0.66804   1.000
    C2      C    0.63330   0.05069   0.83246   1.000
    C3      C    0.86710   0.05085   0.16738   1.000
    C4      C    0.36667   0.94934   0.16754   1.000
    C5      C    0.13287   0.94919   0.83262   1.000
    C6      C    0.13354   0.44910   0.66750   1.000
    C7      C    0.36676   0.44910   0.33196   1.000
    C8      C    0.22232   0.15830   0.28373   1.000
    C9      C    0.09596   0.05052   0.23132   1.000
    C10     C    0.87656   0.25471   0.22749   1.000
    C11     C    0.56845   0.96032   0.00828   1.000
    C12     C    0.58647   0.87400   0.93960   1.000
    C13     C    0.69391   0.07925   0.02712   1.000
    C14     C    0.66445   0.96102   0.11700   1.000
    C15     C    0.75730   0.87383   0.13334   1.000
    C16     C    0.78624   0.75664   0.04169   1.000
    C17     C    0.27774   0.15813   0.71663   1.000
    C18     C    0.40403   0.05036   0.76907   1.000
    C19     C    0.62321   0.25481   0.77353   1.000
    C20     C    0.93162   0.96054   0.00000   1.000
    C21     C    0.91380   0.87427   0.06038   1.000
    C22     C    0.80599   0.07933   0.97259   1.000
    C23     C    0.83568   0.96089   0.88284   1.000
    C24     C    0.74288   0.87358   0.86667   1.000
    C25     C    0.71416   0.75652   0.95851   1.000
    C26     C    0.27697   0.65886   0.78410   1.000
    C27     C    0.40321   0.55087   0.73127   1.000
    C28     C    0.62317   0.75460   0.72721   1.000
    C29     C    0.93130   0.46070   0.50786   1.000
    C30     C    0.91343   0.37437   0.43922   1.000
    C31     C    0.80569   0.57950   0.52724   1.000
    C32     C    0.83549   0.46114   0.61698   1.000
    C33     C    0.74271   0.37383   0.63363   1.000
    C34     C    0.71392   0.25670   0.54203   1.000
    C35     C    0.22240   0.65843   0.21665   1.000
    C36     C    0.09575   0.55075   0.26938   1.000
    C37     C    0.87615   0.75479   0.27263   1.000
    C38     C    0.56812   0.46040   0.49266   1.000
    C39     C    0.58624   0.37412   0.56133   1.000
    C40     C    0.69358   0.57943   0.47315   1.000
    C41     C    0.66395   0.46102   0.38352   1.000
    C42     C    0.75685   0.37385   0.36688   1.000
    C43     C    0.78593   0.25673   0.45858   1.000
    C44     C    0.72300   0.34117   0.21590   1.000
    C45     C    0.59676   0.44916   0.26872   1.000
    C46     C    0.37680   0.24543   0.27279   1.000
    C47     C    0.06867   0.53932   0.49214   1.000
    C48     C    0.08653   0.62566   0.56078   1.000
    C49     C    0.19429   0.42053   0.47277   1.000
    C50     C    0.16448   0.53888   0.38302   1.000
    C51     C    0.25725   0.62619   0.36637   1.000
    C52     C    0.28603   0.74333   0.45797   1.000
    C53     C    0.77757   0.34160   0.78335   1.000
    C54     C    0.90422   0.44928   0.73062   1.000
    C55     C    0.12382   0.24524   0.72737   1.000
    C56     C    0.43184   0.53965   0.50734   1.000
    C57     C    0.41372   0.62592   0.43866   1.000
    C58     C    0.30639   0.42060   0.52685   1.000
    C59     C    0.33602   0.53903   0.61648   1.000
    C60     C    0.24311   0.62618   0.63312   1.000
    C61     C    0.21402   0.74330   0.54142   1.000
    C62     C    0.77765   0.84173   0.71628   1.000
    C63     C    0.90401   0.94951   0.76868   1.000
    C64     C    0.12341   0.74532   0.77251   1.000
    C65     C    0.43152   0.03971   0.00000   1.000
    C66     C    0.41349   0.12604   0.06041   1.000
    C67     C    0.30606   0.92078   0.97288   1.000
    C68     C    0.33552   0.03902   0.88300   1.000
    C69     C    0.24267   0.12620   0.86667   1.000
    C70     C    0.21373   0.24339   0.95832   1.000
    C71     C    0.72223   0.84190   0.28337   1.000
    C72     C    0.59594   0.94967   0.23094   1.000
    C73     C    0.37676   0.74522   0.22647   1.000
    C74     C    0.06835   0.03949   0.00846   1.000
    C75     C    0.08617   0.12576   0.93962   1.000
    C76     C    0.19398   0.92070   0.02742   1.000
    C77     C    0.16428   0.03914   0.11717   1.000
    C78     C    0.25709   0.12645   0.13333   1.000
    C79     C    0.28581   0.24351   0.04149   1.000
    C80     C    0.97355   0.88999   0.20241   1.000
    C81     C    0.01741   0.79940   0.22620   1.000
    C82     C    0.11847   0.77385   0.21351   1.000
    C83     C    0.20051   0.33985   0.30918   1.000
    C84     C    0.14605   0.68261   0.22793   1.000
    C85     C    0.07615   0.62214   0.25810   1.000
    C86     C    0.95341   0.23499   0.24126   1.000
    C87     C    0.87562   0.91629   0.01878   1.000
    C88     C    0.77926   0.91610   0.90895   1.000
    C89     C    0.52659   0.88985   0.79779   1.000
    C90     C    0.48224   0.79942   0.77407   1.000
    C91     C    0.38117   0.77409   0.78701   1.000
    C92     C    0.29950   0.33966   0.69091   1.000
    C93     C    0.35335   0.68288   0.77268   1.000
    C94     C    0.42302   0.62223   0.74244   1.000
    C95     C    0.54642   0.23504   0.75962   1.000
    C96     C    0.62456   0.91612   0.98115   1.000
    C97     C    0.72092   0.91623   0.09096   1.000
    C98     C    0.52649   0.38988   0.70295   1.000
    C99     C    0.48238   0.29934   0.72678   1.000
    C100    C    0.38147   0.27375   0.71392   1.000
    C101    C    0.29928   0.84047   0.80961   1.000
    C102    C    0.35393   0.18240   0.72809   1.000
    C103    C    0.42367   0.12185   0.75812   1.000
    C104    C    0.54623   0.73502   0.74113   1.000
    C105    C    0.62428   0.41623   0.51960   1.000
    C106    C    0.72049   0.41626   0.40936   1.000
    C107    C    0.97340   0.38997   0.29762   1.000
    C108    C    0.01746   0.29933   0.27396   1.000
    C109    C    0.11844   0.27378   0.28670   1.000
    C110    C    0.20054   0.83994   0.19081   1.000
    C111    C    0.14603   0.18247   0.27245   1.000
    C112    C    0.07627   0.12194   0.24246   1.000
    C113    C    0.95316   0.73512   0.25902   1.000
    C114    C    0.87527   0.41641   0.48092   1.000
    C115    C    0.77904   0.41631   0.59115   1.000
    C116    C    0.75002   0.03534   0.99989   1.000
    C117    C    0.75017   0.80058   0.00006   1.000
    C118    C    0.74967   0.53551   0.50021   1.000
    C119    C    0.74989   0.30073   0.50028   1.000
    C120    C    0.47348   0.61015   0.29705   1.000
    C121    C    0.51759   0.70069   0.27322   1.000
    C122    C    0.61850   0.72628   0.28608   1.000
    C123    C    0.70069   0.15956   0.19039   1.000
    C124    C    0.64604   0.81763   0.27191   1.000
    C125    C    0.57630   0.87818   0.24188   1.000
    C126    C    0.45374   0.26501   0.25887   1.000
    C127    C    0.37568   0.58381   0.48040   1.000
    C128    C    0.27947   0.58377   0.59064   1.000
    C129    C    0.02657   0.61006   0.70239   1.000
    C130    C    0.98250   0.70070   0.72604   1.000
    C131    C    0.88153   0.72625   0.71330   1.000
    C132    C    0.79943   0.16009   0.80919   1.000
    C133    C    0.85394   0.81756   0.72755   1.000
    C134    C    0.92370   0.87809   0.75754   1.000
    C135    C    0.04681   0.26491   0.74098   1.000
    C136    C    0.12469   0.58361   0.51908   1.000
    C137    C    0.22092   0.58371   0.40885   1.000
    C138    C    0.02642   0.11004   0.79759   1.000
    C139    C    0.98256   0.20063   0.77380   1.000
    C140    C    0.88150   0.22618   0.78649   1.000
    C141    C    0.79946   0.66018   0.69083   1.000
    C142    C    0.85392   0.31743   0.77207   1.000
    C143    C    0.92382   0.37789   0.74190   1.000
    C144    C    0.04656   0.76504   0.75874   1.000
    C145    C    0.12434   0.08374   0.98122   1.000
    C146    C    0.22071   0.08393   0.09105   1.000
    C147    C    0.47338   0.11018   0.20221   1.000
    C148    C    0.51773   0.20061   0.22593   1.000
    C149    C    0.61880   0.22594   0.21300   1.000
    C150    C    0.70047   0.66037   0.30909   1.000
    C151    C    0.64662   0.31715   0.22732   1.000
    C152    C    0.57695   0.37780   0.25756   1.000
    C153    C    0.45355   0.76499   0.24038   1.000
    C154    C    0.37541   0.08391   0.01886   1.000
    C155    C    0.27905   0.08380   0.90904   1.000
    C156    C    0.25031   0.46452   0.49979   1.000
    C157    C    0.25006   0.69931   0.49971   1.000
    C158    C    0.24995   0.96468   0.00011   1.000
    C159    C    0.24979   0.19944   0.99994   1.000
    C160    C    0.98137   0.64872   0.27595   1.000
    C161    C    0.80029   0.97707   0.05687   1.000
    C162    C    0.82788   0.85759   0.96369   1.000
    C163    C    0.51783   0.64863   0.72438   1.000
    C164    C    0.69985   0.97693   0.94296   1.000
    C165    C    0.67239   0.85758   0.03632   1.000
    C166    C    0.51826   0.14850   0.77623   1.000
    C167    C    0.69959   0.47709   0.55739   1.000
    C168    C    0.67204   0.35765   0.46427   1.000
    C169    C    0.98162   0.14850   0.22454   1.000
    C170    C    0.79987   0.47717   0.44307   1.000
    C171    C    0.82761   0.35778   0.53628   1.000
    C172    C    0.48171   0.85153   0.22377   1.000
    C173    C    0.30038   0.52294   0.44262   1.000
    C174    C    0.32792   0.64238   0.53573   1.000
    C175    C    0.01835   0.85153   0.77546   1.000
    C176    C    0.20010   0.52286   0.55693   1.000
    C177    C    0.17234   0.64225   0.46372   1.000
    C178    C    0.01860   0.35131   0.72405   1.000
    C179    C    0.19968   0.02296   0.94313   1.000
    C180    C    0.17209   0.14244   0.03632   1.000
    C181    C    0.48214   0.35141   0.27562   1.000
    C182    C    0.30012   0.02310   0.05704   1.000
    C183    C    0.32758   0.14245   0.96368   1.000
    C184    C    0.88603   0.91078   0.22781   1.000
    C185    C    0.02063   0.43920   0.34377   1.000
    C186    C    0.25330   0.32056   0.36543   1.000
    C187    C    0.21816   0.40691   0.26583   1.000
    C188    C    0.61373   0.91070   0.77177   1.000
    C189    C    0.47951   0.43892   0.65649   1.000
    C190    C    0.24818   0.32059   0.63397   1.000
    C191    C    0.28046   0.40636   0.73433   1.000
    C192    C    0.61379   0.41070   0.72838   1.000
    C193    C    0.47995   0.93868   0.84469   1.000
    C194    C    0.24480   0.82038   0.86506   1.000
    C195    C    0.28353   0.90878   0.76723   1.000
    C196    C    0.88598   0.41066   0.27226   1.000
    C197    C    0.02103   0.93909   0.15610   1.000
    C198    C    0.25345   0.82061   0.13446   1.000
    C199    C    0.21810   0.90697   0.23410   1.000
    C200    C    0.38618   0.58933   0.27162   1.000
    C201    C    0.52002   0.06135   0.15531   1.000
    C202    C    0.75517   0.17965   0.13494   1.000
    C203    C    0.71644   0.09125   0.23277   1.000
    C204    C    0.11399   0.58937   0.72774   1.000
    C205    C    0.97894   0.06094   0.84391   1.000
    C206    C    0.74652   0.17942   0.86554   1.000
    C207    C    0.78187   0.09306   0.76590   1.000
    C208    C    0.11395   0.08925   0.77220   1.000
    C209    C    0.97934   0.56083   0.65623   1.000
    C210    C    0.74667   0.67948   0.63457   1.000
    C211    C    0.78181   0.59312   0.73417   1.000
    C212    C    0.38624   0.08933   0.22823   1.000
    C213    C    0.52046   0.56111   0.34351   1.000
    C214    C    0.75179   0.67944   0.36603   1.000
    C215    C    0.71951   0.59367   0.26568   1.000
    O216    O    0.90362   0.93841   0.00939   1.000
    O217    O    0.40346   0.06181   0.00943   1.000
    O218    O    0.71128   0.82908   0.01819   1.000
    O219    O    0.76820   0.77861   0.02087   1.000
    O220    O    0.73217   0.77855   0.97929   1.000
    O221    O    0.78903   0.82909   0.98187   1.000
    O222    O    0.22196   0.94269   0.01376   1.000
    O223    O    0.27503   0.99389   0.02858   1.000
    O224    O    0.22482   0.99382   0.97162   1.000
    O225    O    0.27800   0.94273   0.98650   1.000
    O226    O    0.59651   0.93822   0.99471   1.000
    O227    O    0.09635   0.06162   0.99484   1.000
    O228    O    0.83796   0.94668   0.03783   1.000
    O229    O    0.89471   0.89528   0.03958   1.000
    O230    O    0.85175   0.88694   0.99123   1.000
    O231    O    0.33776   0.05351   0.03795   1.000
    O232    O    0.39445   0.10497   0.03963   1.000
    O233    O    0.35149   0.11318   0.99127   1.000
    O234    O    0.72197   0.05729   0.01350   1.000
    O235    O    0.19640   0.11318   0.06369   1.000
    O236    O    0.14822   0.11309   0.00877   1.000
    O237    O    0.21094   0.17094   0.01813   1.000
    O238    O    0.69665   0.88691   0.06364   1.000
    O239    O    0.64847   0.88685   0.00873   1.000
    O240    O    0.26780   0.22148   0.02072   1.000
    O241    O    0.76060   0.94665   0.07392   1.000
    O242    O    0.83369   0.01396   0.11213   1.000
    O243    O    0.77516   0.00620   0.02838   1.000
    O244    O    0.26041   0.05351   0.07405   1.000
    O245    O    0.33340   0.98622   0.11229   1.000
    O246    O    0.69268   0.93862   0.10398   1.000
    O247    O    0.73911   0.89503   0.11215   1.000
    O248    O    0.19250   0.06153   0.10411   1.000
    O249    O    0.23890   0.10519   0.11219   1.000
    O250    O    0.31006   0.88498   0.15100   1.000
    O251    O    0.22700   0.83027   0.16263   1.000
    O252    O    0.81113   0.11525   0.15116   1.000
    O253    O    0.72793   0.16961   0.16267   1.000
    O254    O    0.49670   0.08577   0.17876   1.000
    O255    O    0.99729   0.91454   0.17925   1.000
    O256    O    0.92436   0.09967   0.19596   1.000
    O257    O    0.87656   0.98081   0.19759   1.000
    O258    O    0.79177   0.07105   0.20007   1.000
    O259    O    0.42419   0.90044   0.19566   1.000
    O260    O    0.37646   0.01934   0.19789   1.000
    O261    O    0.29239   0.92816   0.20082   1.000
    O262    O    0.65975   0.19275   0.20170   1.000
    O263    O    0.70857   0.12541   0.21158   1.000
    O264    O    0.15950   0.80689   0.20216   1.000
    O265    O    0.20932   0.87346   0.21245   1.000
    O266    O    0.49555   0.15540   0.21407   1.000
    O267    O    0.42981   0.09976   0.21522   1.000
    O268    O    0.99548   0.84469   0.21430   1.000
    O269    O    0.92979   0.90039   0.21511   1.000
    O270    O    0.56826   0.21328   0.21946   1.000
    O271    O    0.63271   0.27155   0.22016   1.000
    O272    O    0.06794   0.78662   0.21985   1.000
    O273    O    0.13226   0.72823   0.22072   1.000
    O274    O    0.68481   0.32916   0.22161   1.000
    O275    O    0.18423   0.67052   0.22229   1.000
    O276    O    0.46763   0.80826   0.23208   1.000
    O277    O    0.52900   0.86486   0.23283   1.000
    O278    O    0.96752   0.19175   0.23290   1.000
    O279    O    0.02895   0.13522   0.23350   1.000
    O280    O    0.48573   0.23281   0.24240   1.000
    O281    O    0.98529   0.76726   0.24261   1.000
    O282    O    0.41515   0.75511   0.23343   1.000
    O283    O    0.61179   0.34747   0.24244   1.000
    O284    O    0.91498   0.24485   0.23438   1.000
    O285    O    0.11110   0.65237   0.24302   1.000
    O286    O    0.58612   0.91392   0.23641   1.000
    O287    O    0.08612   0.08623   0.23689   1.000
    O288    O    0.48557   0.73284   0.25680   1.000
    O289    O    0.98544   0.26716   0.25761   1.000
    O290    O    0.61117   0.84791   0.25690   1.000
    O291    O    0.11115   0.15221   0.25746   1.000
    O292    O    0.58686   0.41348   0.26314   1.000
    O293    O    0.52955   0.36460   0.26659   1.000
    O294    O    0.08595   0.58644   0.26374   1.000
    O295    O    0.02876   0.63543   0.26702   1.000
    O296    O    0.41527   0.25522   0.26583   1.000
    O297    O    0.46794   0.30821   0.26725   1.000
    O298    O    0.91466   0.74496   0.26583   1.000
    O299    O    0.96726   0.69192   0.26748   1.000
    O300    O    0.70999   0.62702   0.28738   1.000
    O301    O    0.79297   0.57230   0.29909   1.000
    O302    O    0.20934   0.37338   0.28750   1.000
    O303    O    0.29246   0.42801   0.29889   1.000
    O304    O    0.42983   0.59974   0.28434   1.000
    O305    O    0.37647   0.51922   0.30179   1.000
    O306    O    0.68414   0.82977   0.27764   1.000
    O307    O    0.63227   0.77196   0.27900   1.000
    O308    O    0.92969   0.40031   0.28494   1.000
    O309    O    0.87621   0.48080   0.30238   1.000
    O310    O    0.18418   0.17039   0.27809   1.000
    O311    O    0.13223   0.22813   0.27957   1.000
    O312    O    0.56804   0.71349   0.27965   1.000
    O313    O    0.49553   0.65542   0.28514   1.000
    O314    O    0.06795   0.28656   0.28033   1.000
    O315    O    0.99543   0.34465   0.28579   1.000
    O316    O    0.42445   0.40026   0.30379   1.000
    O317    O    0.92390   0.59983   0.30422   1.000
    O318    O    0.65948   0.69333   0.29759   1.000
    O319    O    0.15948   0.30681   0.29794   1.000
    O320    O    0.49697   0.58563   0.32028   1.000
    O321    O    0.99702   0.41458   0.32069   1.000
    O322    O    0.72613   0.66991   0.33756   1.000
    O323    O    0.22691   0.33020   0.33730   1.000
    O324    O    0.31003   0.38483   0.34869   1.000
    O325    O    0.33357   0.48602   0.38729   1.000
    O326    O    0.80911   0.61519   0.34927   1.000
    O327    O    0.83315   0.51405   0.38778   1.000
    O328    O    0.23908   0.60495   0.38761   1.000
    O329    O    0.73867   0.39506   0.38812   1.000
    O330    O    0.19270   0.56130   0.39593   1.000
    O331    O    0.69222   0.43864   0.39644   1.000
    O332    O    0.26065   0.55333   0.42573   1.000
    O333    O    0.19663   0.61298   0.43628   1.000
    O334    O    0.76018   0.44672   0.42622   1.000
    O335    O    0.69626   0.38696   0.43682   1.000
    O336    O    0.39470   0.60487   0.45953   1.000
    O337    O    0.89435   0.39539   0.46007   1.000
    O338    O    0.33803   0.55337   0.46151   1.000
    O339    O    0.27534   0.49373   0.47120   1.000
    O340    O    0.83757   0.44679   0.46200   1.000
    O341    O    0.77477   0.50634   0.47164   1.000
    O342    O    0.26805   0.72132   0.47884   1.000
    O343    O    0.76791   0.27873   0.47943   1.000
    O344    O    0.21120   0.67078   0.48171   1.000
    O345    O    0.14852   0.61293   0.49140   1.000
    O346    O    0.71096   0.32919   0.48228   1.000
    O347    O    0.64816   0.38694   0.49193   1.000
    O348    O    0.22230   0.44252   0.48628   1.000
    O349    O    0.72163   0.55747   0.48668   1.000
    O350    O    0.40376   0.56173   0.49387   1.000
    O351    O    0.35180   0.61310   0.50807   1.000
    O352    O    0.90329   0.43855   0.49439   1.000
    O353    O    0.85144   0.38709   0.50860   1.000
    O354    O    0.09668   0.56147   0.50561   1.000
    O355    O    0.59620   0.43831   0.50613   1.000
    O356    O    0.28899   0.67085   0.51772   1.000
    O357    O    0.23204   0.72130   0.52056   1.000
    O358    O    0.27835   0.44256   0.51332   1.000
    O359    O    0.22520   0.49369   0.52836   1.000
    O360    O    0.77768   0.55750   0.51372   1.000
    O361    O    0.72463   0.50630   0.52880   1.000
    O362    O    0.78875   0.32925   0.51828   1.000
    O363    O    0.73190   0.27871   0.52116   1.000
    O364    O    0.16239   0.55324   0.53800   1.000
    O365    O    0.10561   0.60463   0.53993   1.000
    O366    O    0.66193   0.44666   0.53849   1.000
    O367    O    0.60526   0.39517   0.54046   1.000
    O368    O    0.30370   0.61308   0.56318   1.000
    O369    O    0.80333   0.38704   0.56372   1.000
    O370    O    0.23979   0.55332   0.57378   1.000
    O371    O    0.16682   0.48598   0.61222   1.000
    O372    O    0.73932   0.44670   0.57427   1.000
    O373    O    0.66640   0.51401   0.61271   1.000
    O374    O    0.30775   0.56140   0.60356   1.000
    O375    O    0.26129   0.60498   0.61188   1.000
    O376    O    0.80727   0.43872   0.60407   1.000
    O377    O    0.76088   0.39507   0.61239   1.000
    O378    O    0.19086   0.38484   0.65074   1.000
    O379    O    0.27384   0.33012   0.66244   1.000
    O380    O    0.68994   0.61520   0.65131   1.000
    O381    O    0.77306   0.66983   0.66270   1.000
    O382    O    0.00295   0.58545   0.67931   1.000
    O383    O    0.50300   0.41440   0.67972   1.000
    O384    O    0.07607   0.40020   0.69578   1.000
    O385    O    0.12376   0.51923   0.69762   1.000
    O386    O    0.20700   0.42773   0.70091   1.000
    O387    O    0.57552   0.59978   0.69621   1.000
    O388    O    0.62351   0.48082   0.69821   1.000
    O389    O    0.70751   0.57202   0.70111   1.000
    O390    O    0.84050   0.69322   0.70206   1.000
    O391    O    0.79063   0.62665   0.71250   1.000
    O392    O    0.34049   0.30670   0.70241   1.000
    O393    O    0.28998   0.37301   0.71262   1.000
    O394    O    0.00454   0.65538   0.71421   1.000
    O395    O    0.07028   0.59972   0.71506   1.000
    O396    O    0.50444   0.34461   0.71486   1.000
    O397    O    0.57014   0.40029   0.71566   1.000
    O398    O    0.93202   0.71348   0.71967   1.000
    O399    O    0.86774   0.77191   0.72043   1.000
    O400    O    0.43193   0.28654   0.72035   1.000
    O401    O    0.36770   0.22807   0.72101   1.000
    O402    O    0.81579   0.82964   0.72191   1.000
    O403    O    0.31583   0.17027   0.72236   1.000
    O404    O    0.03271   0.30811   0.73252   1.000
    O405    O    0.97121   0.36460   0.73298   1.000
    O406    O    0.53203   0.69182   0.73275   1.000
    O407    O    0.47042   0.63543   0.73341   1.000
    O408    O    0.01453   0.73287   0.74239   1.000
    O409    O    0.51440   0.26719   0.74320   1.000
    O410    O    0.58470   0.74481   0.73417   1.000
    O411    O    0.08531   0.25507   0.73417   1.000
    O412    O    0.88882   0.84782   0.74255   1.000
    O413    O    0.38880   0.15212   0.74311   1.000
    O414    O    0.91402   0.41359   0.73626   1.000
    O415    O    0.41311   0.58655   0.73686   1.000
    O416    O    0.01468   0.23277   0.75739   1.000
    O417    O    0.51424   0.76722   0.75760   1.000
    O418    O    0.88887   0.34766   0.75698   1.000
    O419    O    0.38818   0.65256   0.75756   1.000
    O420    O    0.91385   0.91380   0.76311   1.000
    O421    O    0.97102   0.86481   0.76650   1.000
    O422    O    0.41385   0.08611   0.76359   1.000
    O423    O    0.47097   0.13517   0.76717   1.000
    O424    O    0.08499   0.75518   0.76563   1.000
    O425    O    0.03245   0.80828   0.76710   1.000
    O426    O    0.58482   0.24492   0.76658   1.000
    O427    O    0.53234   0.19177   0.76793   1.000
    O428    O    0.79065   0.12657   0.78755   1.000
    O429    O    0.70758   0.07187   0.79918   1.000
    O430    O    0.29140   0.87463   0.78842   1.000
    O431    O    0.20820   0.92899   0.79993   1.000
    O432    O    0.57016   0.90027   0.78478   1.000
    O433    O    0.62351   0.98069   0.80211   1.000
    O434    O    0.81574   0.32951   0.77771   1.000
    O435    O    0.86771   0.27180   0.77928   1.000
    O436    O    0.07018   0.09965   0.78490   1.000
    O437    O    0.12341   0.01922   0.80241   1.000
    O438    O    0.31516   0.67087   0.77839   1.000
    O439    O    0.36726   0.72848   0.77984   1.000
    O440    O    0.93203   0.21341   0.78015   1.000
    O441    O    0.00449   0.15534   0.78570   1.000
    O442    O    0.43171   0.78675   0.78054   1.000
    O443    O    0.50442   0.84463   0.78593   1.000
    O444    O    0.07561   0.90036   0.80404   1.000
    O445    O    0.57578   0.09959   0.80434   1.000
    O446    O    0.84047   0.19314   0.79784   1.000
    O447    O    0.34022   0.80728   0.79831   1.000
    O448    O    0.00268   0.08549   0.82075   1.000
    O449    O    0.50327   0.91426   0.82124   1.000
    O450    O    0.77298   0.16976   0.83737   1.000
    O451    O    0.27204   0.83042   0.83734   1.000
    O452    O    0.68991   0.11506   0.84900   1.000
    O453    O    0.66657   0.01381   0.88771   1.000
    O454    O    0.18884   0.88478   0.84884   1.000
    O455    O    0.16628   0.98607   0.88788   1.000
    O456    O    0.26086   0.10500   0.88785   1.000
    O457    O    0.76107   0.89484   0.88781   1.000
    O458    O    0.80747   0.93850   0.89589   1.000
    O459    O    0.30729   0.06141   0.89602   1.000
    O460    O    0.73956   0.94652   0.92596   1.000
    O461    O    0.80357   0.88685   0.93632   1.000
    O462    O    0.23937   0.05338   0.92608   1.000
    O463    O    0.30332   0.11313   0.93636   1.000
    O464    O    0.60552   0.89506   0.96037   1.000
    O465    O    0.10526   0.10475   0.96042   1.000
    O466    O    0.66221   0.94653   0.96205   1.000
    O467    O    0.72494   0.00614   0.97143   1.000
    O468    O    0.16201   0.05335   0.96218   1.000
    O469    O    0.23176   0.22141   0.97913   1.000
    O470    O    0.28869   0.17095   0.98181   1.000
    O471    O    0.77801   0.05733   0.98624   1.000
loop_
    _geom_bond_atom_site_label_1
    _geom_bond_atom_site_label_2
    _geom_bond_distance
    _geom_bond_site_symmetry_2
    _ccdc_geom_bond_type
    C20    O216      0.51934      .   S
    C87    O216      0.51934      .   S
    C65    O217      0.51997      .   S
    C154   O217      0.51997      .   S
    C117   O218      0.73791      .   S
    C165   O218      0.73791      .   S
    C117   O219      0.54937      .   S
    C16    O219      0.54937      .   S
    C117   O220      0.54941  1_554   S
    C25    O220      0.54941      .   S
    C117   O221      0.73795  1_554   S
    C162   O221      0.73795      .   S
    C158   O222      0.54817      .   S
    C76    O222      0.54817      .   S
    C158   O223      0.74703      .   S
    C182   O223      0.74703  1_545   S
    C158   O224      0.74687  1_554   S
    C179   O224      0.74687  1_545   S
    C158   O225      0.54823  1_554   S
    C67    O225      0.54823      .   S
    C11    O226      0.54908  1_554   S
    C96    O226      0.54908      .   S
    C74    O227      0.54910  1_554   S
    C145   O227      0.54910      .   S
    C87    O228      0.75018      .   S
    C161   O228      0.75018      .   S
    C87    O229      0.54761      .   S
    C21    O229      0.54761      .   S
    C87    O230      0.72969  1_554   S
    C162   O230      0.72969      .   S
    C154   O231      0.75038      .   S
    C182   O231      0.75038      .   S
    C154   O232      0.54755      .   S
    C66    O232      0.54755      .   S
    C154   O233      0.72953  1_554   S
    C183   O233      0.72953      .   S
    C13    O234      0.54826      .   S
    C116   O234      0.54826  1_556   S
    C180   O235      0.72900      .   S
    C146   O235      0.72900      .   S
    C180   O236      0.72969      .   S
    C145   O236      0.72969  1_556   S
    C180   O237      0.73790      .   S
    C159   O237      0.73790  1_556   S
    C165   O238      0.72894      .   S
    C97    O238      0.72894      .   S
    C165   O239      0.72953      .   S
    C96    O239      0.72953  1_556   S
    C79    O240      0.54946      .   S
    C159   O240      0.54946  1_556   S
    C161   O241      0.75281      .   S
    C97    O241      0.75281      .   S
    C161   O242      1.22025  1_565   S
    C3     O242      1.22025      .   S
    C161   O243      0.74683  1_565   S
    C116   O243      0.74683  1_556   S
    C182   O244      0.75275      .   S
    C146   O244      0.75275      .   S
    C182   O245      1.21924  1_545   S
    C4     O245      1.21924      .   S
    C97    O246      0.54887      .   S
    C14    O246      0.54887      .   S
    C97    O247      0.54862      .   S
    C15    O247      0.54862      .   S
    C146   O248      0.54890      .   S
    C77    O248      0.54890      .   S
    C146   O249      0.54865      .   S
    C78    O249      0.54865      .   S
    C198   O250      1.23701      .   S
    C4     O250      1.23701      .   S
    C198   O251      0.63442      .   S
    C110   O251      0.63442      .   S
    C202   O252      1.23057      .   S
    C3     O252      1.23057      .   S
    C202   O253      0.63494      .   S
    C123   O253      0.63494      .   S
    C201   O254      0.63378      .   S
    C147   O254      0.63378      .   S
    C197   O255      0.63388  1_455   S
    C80    O255      0.63388      .   S
    C3     O256      1.16210      .   S
    C169   O256      1.16210      .   S
    C3     O257      1.16315  1_545   S
    C184   O257      1.16315      .   S
    C3     O258      1.19604      .   S
    C203   O258      1.19604      .   S
    C4     O259      1.16096      .   S
    C172   O259      1.16096      .   S
    C4     O260      1.16460  1_565   S
    C212   O260      1.16460      .   S
    C4     O261      1.19337      .   S
    C199   O261      1.19337      .   S
    C123   O262      0.75414      .   S
    C149   O262      0.75414      .   S
    C123   O263      0.63657      .   S
    C203   O263      0.63657      .   S
    C110   O264      0.75384      .   S
    C82    O264      0.75384      .   S
    C110   O265      0.63675      .   S
    C199   O265      0.63675      .   S
    C147   O266      0.75191      .   S
    C148   O266      0.75191      .   S
    C147   O267      0.64113      .   S
    C212   O267      0.64113      .   S
    C80    O268      0.75170      .   S
    C81    O268      0.75170  1_455   S
    C80    O269      0.64134      .   S
    C184   O269      0.64134      .   S
    C149   O270      0.70391      .   S
    C148   O270      0.70391      .   S
    C149   O271      0.70065      .   S
    C151   O271      0.70065      .   S
    C82    O272      0.70387      .   S
    C81    O272      0.70387      .   S
    C82    O273      0.70055      .   S
    C84    O273      0.70055      .   S
    C44    O274      0.54492      .   S
    C151   O274      0.54492      .   S
    C35    O275      0.54492      .   S
    C84    O275      0.54492      .   S
    C172   O276      0.67328      .   S
    C153   O276      0.67328      .   S
    C172   O277      0.67646      .   S
    C125   O277      0.67646      .   S
    C169   O278      0.67333      .   S
    C86    O278      0.67333      .   S
    C169   O279      0.67620  1_655   S
    C112   O279      0.67620      .   S
    C148   O280      0.69825      .   S
    C126   O280      0.69825      .   S
    C81    O281      0.69814  1_455   S
    C113   O281      0.69814      .   S
    C73    O282      0.54369      .   S
    C153   O282      0.54369      .   S
    C151   O283      0.69426      .   S
    C152   O283      0.69426      .   S
    C10    O284      0.54367      .   S
    C86    O284      0.54367      .   S
    C84    O285      0.69410      .   S
    C85    O285      0.69410      .   S
    C72    O286      0.54488      .   S
    C125   O286      0.54488      .   S
    C9     O287      0.54484      .   S
    C112   O287      0.54484      .   S
    C153   O288      0.69834      .   S
    C121   O288      0.69834      .   S
    C86    O289      0.69821      .   S
    C108   O289      0.69821  1_455   S
    C125   O290      0.69414      .   S
    C124   O290      0.69414      .   S
    C112   O291      0.69418      .   S
    C111   O291      0.69418      .   S
    C152   O292      0.54488      .   S
    C45    O292      0.54488      .   S
    C152   O293      0.67640      .   S
    C181   O293      0.67640      .   S
    C85    O294      0.54482      .   S
    C36    O294      0.54482      .   S
    C85    O295      0.67617      .   S
    C160   O295      0.67617  1_655   S
    C126   O296      0.54368      .   S
    C46    O296      0.54368      .   S
    C126   O297      0.67332      .   S
    C181   O297      0.67332      .   S
    C113   O298      0.54367      .   S
    C37    O298      0.54367      .   S
    C113   O299      0.67325      .   S
    C160   O299      0.67325      .   S
    C215   O300      0.63707      .   S
    C150   O300      0.63707      .   S
    C215   O301      1.18875      .   S
    C0     O301      1.18875      .   S
    C187   O302      0.63673      .   S
    C83    O302      0.63673      .   S
    C187   O303      1.19381      .   S
    C7     O303      1.19381      .   S
    C200   O304      0.64120      .   S
    C120   O304      0.64120      .   S
    C200   O305      1.16386      .   S
    C7     O305      1.16386      .   S
    C124   O306      0.54493      .   S
    C71    O306      0.54493      .   S
    C124   O307      0.70066      .   S
    C122   O307      0.70066      .   S
    C196   O308      0.64140      .   S
    C107   O308      0.64140      .   S
    C196   O309      1.16416      .   S
    C0     O309      1.16416      .   S
    C111   O310      0.54493      .   S
    C8     O310      0.54493      .   S
    C111   O311      0.70061      .   S
    C109   O311      0.70061      .   S
    C121   O312      0.70384      .   S
    C122   O312      0.70384      .   S
    C121   O313      0.75179      .   S
    C120   O313      0.75179      .   S
    C108   O314      0.70396      .   S
    C109   O314      0.70396      .   S
    C108   O315      0.75187  1_455   S
    C107   O315      0.75187      .   S
    C181   O316      1.16100      .   S
    C7     O316      1.16100      .   S
    C160   O317      1.16007      .   S
    C0     O317      1.16007      .   S
    C122   O318      0.75401      .   S
    C150   O318      0.75401      .   S
    C109   O319      0.75404      .   S
    C83    O319      0.75404      .   S
    C120   O320      0.63383      .   S
    C213   O320      0.63383      .   S
    C107   O321      0.63382      .   S
    C185   O321      0.63382  1_455   S
    C150   O322      0.63401      .   S
    C214   O322      0.63401      .   S
    C83    O323      0.63453      .   S
    C186   O323      0.63453      .   S
    C7     O324      1.23667      .   S
    C186   O324      1.23667      .   S
    C7     O325      1.21872      .   S
    C173   O325      1.21872      .   S
    C0     O326      1.24150      .   S
    C214   O326      1.24150      .   S
    C0     O327      1.21802      .   S
    C170   O327      1.21802      .   S
    C51    O328      0.54862      .   S
    C137   O328      0.54862      .   S
    C42    O329      0.54862      .   S
    C106   O329      0.54862      .   S
    C50    O330      0.54893      .   S
    C137   O330      0.54893      .   S
    C41    O331      0.54897      .   S
    C106   O331      0.54897      .   S
    C137   O332      0.75279      .   S
    C173   O332      0.75279      .   S
    C137   O333      0.72891      .   S
    C177   O333      0.72891      .   S
    C106   O334      0.75291      .   S
    C170   O334      0.75291      .   S
    C106   O335      0.72890      .   S
    C168   O335      0.72890      .   S
    C57    O336      0.54752      .   S
    C127   O336      0.54752      .   S
    C30    O337      0.54753      .   S
    C114   O337      0.54753      .   S
    C173   O338      0.75034      .   S
    C127   O338      0.75034      .   S
    C173   O339      0.74694      .   S
    C156   O339      0.74694      .   S
    C170   O340      0.75038      .   S
    C114   O340      0.75038      .   S
    C170   O341      0.74700      .   S
    C118   O341      0.74700      .   S
    C52    O342      0.54941      .   S
    C157   O342      0.54941      .   S
    C43    O343      0.54938      .   S
    C119   O343      0.54938      .   S
    C177   O344      0.73794      .   S
    C157   O344      0.73794      .   S
    C177   O345      0.72953      .   S
    C136   O345      0.72953      .   S
    C168   O346      0.73794      .   S
    C119   O346      0.73794      .   S
    C168   O347      0.72955      .   S
    C105   O347      0.72955      .   S
    C49    O348      0.54822      .   S
    C156   O348      0.54822      .   S
    C40    O349      0.54822      .   S
    C118   O349      0.54822      .   S
    C127   O350      0.54906      .   S
    C56    O350      0.54906      .   S
    C127   O351      0.72954      .   S
    C174   O351      0.72954      .   S
    C114   O352      0.54910      .   S
    C29    O352      0.54910      .   S
    C114   O353      0.72953      .   S
    C171   O353      0.72953      .   S
    C47    O354      0.54910      .   S
    C136   O354      0.54910      .   S
    C38    O355      0.54906      .   S
    C105   O355      0.54906      .   S
    C157   O356      0.73794      .   S
    C174   O356      0.73794      .   S
    C157   O357      0.54939      .   S
    C61    O357      0.54939      .   S
    C156   O358      0.54822      .   S
    C58    O358      0.54822      .   S
    C156   O359      0.74700      .   S
    C176   O359      0.74700      .   S
    C118   O360      0.54822      .   S
    C31    O360      0.54822      .   S
    C118   O361      0.74695      .   S
    C167   O361      0.74695      .   S
    C119   O362      0.73792      .   S
    C171   O362      0.73792      .   S
    C119   O363      0.54942      .   S
    C34    O363      0.54942      .   S
    C136   O364      0.75038      .   S
    C176   O364      0.75038      .   S
    C136   O365      0.54753      .   S
    C48    O365      0.54753      .   S
    C105   O366      0.75034      .   S
    C167   O366      0.75034      .   S
    C105   O367      0.54752      .   S
    C39    O367      0.54752      .   S
    C174   O368      0.72890      .   S
    C128   O368      0.72890      .   S
    C171   O369      0.72892      .   S
    C115   O369      0.72892      .   S
    C176   O370      0.75291      .   S
    C128   O370      0.75291      .   S
    C176   O371      1.21801      .   S
    C6     O371      1.21801      .   S
    C167   O372      0.75279      .   S
    C115   O372      0.75279      .   S
    C167   O373      1.21871      .   S
    C1     O373      1.21871      .   S
    C128   O374      0.54897      .   S
    C59    O374      0.54897      .   S
    C128   O375      0.54861      .   S
    C60    O375      0.54861      .   S
    C115   O376      0.54892      .   S
    C32    O376      0.54892      .   S
    C115   O377      0.54862      .   S
    C33    O377      0.54862      .   S
    C190   O378      1.24150      .   S
    C6     O378      1.24150      .   S
    C190   O379      0.63401      .   S
    C92    O379      0.63401      .   S
    C210   O380      1.23668      .   S
    C1     O380      1.23668      .   S
    C210   O381      0.63453      .   S
    C141   O381      0.63453      .   S
    C209   O382      0.63383  1_655   S
    C129   O382      0.63383      .   S
    C189   O383      0.63383      .   S
    C98    O383      0.63383      .   S
    C6     O384      1.16007      .   S
    C178   O384      1.16007      .   S
    C6     O385      1.16415      .   S
    C204   O385      1.16415      .   S
    C6     O386      1.18873      .   S
    C191   O386      1.18873      .   S
    C1     O387      1.16100      .   S
    C163   O387      1.16100      .   S
    C1     O388      1.16386      .   S
    C192   O388      1.16386      .   S
    C1     O389      1.19380      .   S
    C211   O389      1.19380      .   S
    C141   O390      0.75404      .   S
    C131   O390      0.75404      .   S
    C141   O391      0.63673      .   S
    C211   O391      0.63673      .   S
    C92    O392      0.75401      .   S
    C100   O392      0.75401      .   S
    C92    O393      0.63707      .   S
    C191   O393      0.63707      .   S
    C129   O394      0.75187      .   S
    C130   O394      0.75187  1_655   S
    C129   O395      0.64140      .   S
    C204   O395      0.64140      .   S
    C98    O396      0.75179      .   S
    C99    O396      0.75179      .   S
    C98    O397      0.64121      .   S
    C192   O397      0.64121      .   S
    C131   O398      0.70395      .   S
    C130   O398      0.70395      .   S
    C131   O399      0.70060      .   S
    C133   O399      0.70060      .   S
    C100   O400      0.70384      .   S
    C99    O400      0.70384      .   S
    C100   O401      0.70066      .   S
    C102   O401      0.70066      .   S
    C62    O402      0.54493      .   S
    C133   O402      0.54493      .   S
    C17    O403      0.54493      .   S
    C102   O403      0.54493      .   S
    C178   O404      0.67325      .   S
    C135   O404      0.67325      .   S
    C178   O405      0.67617  1_455   S
    C143   O405      0.67617      .   S
    C163   O406      0.67332      .   S
    C104   O406      0.67332      .   S
    C163   O407      0.67640      .   S
    C94    O407      0.67640      .   S
    C130   O408      0.69822  1_655   S
    C144   O408      0.69822      .   S
    C99    O409      0.69834      .   S
    C95    O409      0.69834      .   S
    C28    O410      0.54369      .   S
    C104   O410      0.54369      .   S
    C55    O411      0.54367      .   S
    C135   O411      0.54367      .   S
    C133   O412      0.69418      .   S
    C134   O412      0.69418      .   S
    C102   O413      0.69414      .   S
    C103   O413      0.69414      .   S
    C54    O414      0.54483      .   S
    C143   O414      0.54483      .   S
    C27    O415      0.54488      .   S
    C94    O415      0.54488      .   S
    C135   O416      0.69815      .   S
    C139   O416      0.69815  1_655   S
    C104   O417      0.69825      .   S
    C90    O417      0.69825      .   S
    C143   O418      0.69410      .   S
    C142   O418      0.69410      .   S
    C94    O419      0.69427      .   S
    C93    O419      0.69427      .   S
    C134   O420      0.54484      .   S
    C63    O420      0.54484      .   S
    C134   O421      0.67620      .   S
    C175   O421      0.67620  1_455   S
    C103   O422      0.54489      .   S
    C18    O422      0.54489      .   S
    C103   O423      0.67646      .   S
    C166   O423      0.67646      .   S
    C144   O424      0.54367      .   S
    C64    O424      0.54367      .   S
    C144   O425      0.67332      .   S
    C175   O425      0.67332      .   S
    C95    O426      0.54369      .   S
    C19    O426      0.54369      .   S
    C95    O427      0.67328      .   S
    C166   O427      0.67328      .   S
    C207   O428      0.63675      .   S
    C132   O428      0.63675      .   S
    C207   O429      1.19337      .   S
    C2     O429      1.19337      .   S
    C195   O430      0.63657      .   S
    C101   O430      0.63657      .   S
    C195   O431      1.19602      .   S
    C5     O431      1.19602      .   S
    C188   O432      0.64113      .   S
    C89    O432      0.64113      .   S
    C188   O433      1.16461      .   S
    C2     O433      1.16461  1_545   S
    C142   O434      0.54491      .   S
    C53    O434      0.54491      .   S
    C142   O435      0.70055      .   S
    C140   O435      0.70055      .   S
    C208   O436      0.64134      .   S
    C138   O436      0.64134      .   S
    C208   O437      1.16315      .   S
    C5     O437      1.16315  1_565   S
    C93    O438      0.54491      .   S
    C26    O438      0.54491      .   S
    C93    O439      0.70065      .   S
    C91    O439      0.70065      .   S
    C139   O440      0.70387      .   S
    C140   O440      0.70387      .   S
    C139   O441      0.75170  1_655   S
    C138   O441      0.75170      .   S
    C90    O442      0.70391      .   S
    C91    O442      0.70391      .   S
    C90    O443      0.75191      .   S
    C89    O443      0.75191      .   S
    C175   O444      1.16210      .   S
    C5     O444      1.16210      .   S
    C166   O445      1.16096      .   S
    C2     O445      1.16096      .   S
    C140   O446      0.75385      .   S
    C132   O446      0.75385      .   S
    C91    O447      0.75414      .   S
    C101   O447      0.75414      .   S
    C138   O448      0.63388      .   S
    C205   O448      0.63388  1_655   S
    C89    O449      0.63377      .   S
    C193   O449      0.63377      .   S
    C132   O450      0.63442      .   S
    C206   O450      0.63442      .   S
    C101   O451      0.63494      .   S
    C194   O451      0.63494      .   S
    C2     O452      1.23701      .   S
    C206   O452      1.23701      .   S
    C2     O453      1.21925      .   S
    C164   O453      1.21925  1_565   S
    C5     O454      1.23056      .   S
    C194   O454      1.23056      .   S
    C5     O455      1.22025      .   S
    C179   O455      1.22025  1_545   S
    C69    O456      0.54861      .   S
    C155   O456      0.54861      .   S
    C24    O457      0.54865      .   S
    C88    O457      0.54865      .   S
    C23    O458      0.54890      .   S
    C88    O458      0.54890      .   S
    C68    O459      0.54888      .   S
    C155   O459      0.54888      .   S
    C88    O460      0.75276      .   S
    C164   O460      0.75276      .   S
    C88    O461      0.72899      .   S
    C162   O461      0.72899      .   S
    C155   O462      0.75281      .   S
    C179   O462      0.75281      .   S
    C155   O463      0.72894      .   S
    C183   O463      0.72894      .   S
    C12    O464      0.54756      .   S
    C96    O464      0.54756      .   S
    C75    O465      0.54761      .   S
    C145   O465      0.54761      .   S
    C164   O466      0.75038      .   S
    C96    O466      0.75038      .   S
    C164   O467      0.74698  1_565   S
    C116   O467      0.74698      .   S
    C179   O468      0.75018      .   S
    C145   O468      0.75018      .   S
    C70    O469      0.54940      .   S
    C159   O469      0.54940      .   S
    C183   O470      0.73787      .   S
    C159   O470      0.73787      .   S
    C22    O471      0.54821      .   S
    C116   O471      0.54821      .   S
