# CIF file generated by openbabel 2.4.90, see http://openbabel.sf.net
data_I
_chemical_name_common ''
_cell_length_a 18.343
_cell_length_b 19.757
_cell_length_c 19.757
_cell_angle_alpha 90
_cell_angle_beta 90
_cell_angle_gamma 89.999
_space_group_name_H-M_alt 'P 1'
_space_group_name_Hall 'P 1'
loop_
    _symmetry_equiv_pos_as_xyz
    x,y,z
loop_
    _atom_site_label
    _atom_site_type_symbol
    _atom_site_fract_x
    _atom_site_fract_y
    _atom_site_fract_z
    _atom_site_occupancy
    H0      H    0.33185   0.88389   0.00697   1.000
    H1      H    0.83184   0.88389   0.00697   1.000
    H2      H    0.37889   0.80953   0.03150   1.000
    H3      H    0.87889   0.80953   0.03150   1.000
    H4      H    0.23642   0.79318   0.03740   1.000
    H5      H    0.73641   0.79318   0.03740   1.000
    H6      H    0.21620   0.73311   0.97397   1.000
    H7      H    0.71620   0.73311   0.97397   1.000
    H8      H    0.22240   0.86561   0.92957   1.000
    H9      H    0.72240   0.86561   0.92957   1.000
    H10     H    0.29823   0.86654   0.87392   1.000
    H11     H    0.79823   0.86653   0.87392   1.000
    H12     H    0.45665   0.89725   0.97257   1.000
    H13     H    0.95665   0.89725   0.97257   1.000
    H14     H    0.40440   0.88462   0.89842   1.000
    H15     H    0.90439   0.88462   0.89842   1.000
    H16     H    0.05406   0.78362   0.85246   1.000
    H17     H    0.55405   0.78362   0.85246   1.000
    H18     H    0.04016   0.87007   0.86784   1.000
    H19     H    0.54015   0.87007   0.86784   1.000
    H20     H    0.98728   0.77542   0.02443   1.000
    H21     H    0.48728   0.77543   0.02443   1.000
    H22     H    0.06298   0.81624   0.98696   1.000
    H23     H    0.56297   0.81624   0.98696   1.000
    H24     H    0.33186   0.11613   0.99304   1.000
    H25     H    0.83186   0.11613   0.99304   1.000
    H26     H    0.37890   0.19049   0.96844   1.000
    H27     H    0.87889   0.19049   0.96844   1.000
    H28     H    0.23643   0.20684   0.96254   1.000
    H29     H    0.73642   0.20684   0.96254   1.000
    H30     H    0.21620   0.26691   0.02605   1.000
    H31     H    0.71620   0.26691   0.02604   1.000
    H32     H    0.22241   0.13441   0.07044   1.000
    H33     H    0.72240   0.13441   0.07040   1.000
    H34     H    0.29824   0.13349   0.12609   1.000
    H35     H    0.79823   0.13349   0.12609   1.000
    H36     H    0.45666   0.10277   0.02744   1.000
    H37     H    0.95665   0.10277   0.02744   1.000
    H38     H    0.40440   0.11540   0.10159   1.000
    H39     H    0.90439   0.11540   0.10159   1.000
    H40     H    0.05406   0.21640   0.14754   1.000
    H41     H    0.55405   0.21640   0.14750   1.000
    H42     H    0.04016   0.12995   0.13217   1.000
    H43     H    0.54016   0.12995   0.13217   1.000
    H44     H    0.98729   0.22460   0.97558   1.000
    H45     H    0.48729   0.22460   0.97558   1.000
    H46     H    0.06298   0.18378   0.01305   1.000
    H47     H    0.56297   0.18378   0.01305   1.000
    H48     H    0.33186   0.99305   0.88389   1.000
    H49     H    0.83185   0.99305   0.88389   1.000
    H50     H    0.37890   0.96844   0.80953   1.000
    H51     H    0.87889   0.96844   0.80950   1.000
    H52     H    0.23642   0.96254   0.79317   1.000
    H53     H    0.73641   0.96254   0.79318   1.000
    H54     H    0.21620   0.02605   0.73311   1.000
    H55     H    0.71620   0.02605   0.73310   1.000
    H56     H    0.22241   0.07045   0.86560   1.000
    H57     H    0.72241   0.07045   0.86560   1.000
    H58     H    0.29824   0.12609   0.86653   1.000
    H59     H    0.79823   0.12609   0.86653   1.000
    H60     H    0.45666   0.02744   0.89725   1.000
    H61     H    0.95665   0.02744   0.89725   1.000
    H62     H    0.40440   0.10160   0.88462   1.000
    H63     H    0.90440   0.10159   0.88462   1.000
    H64     H    0.05407   0.14755   0.78362   1.000
    H65     H    0.55405   0.14755   0.78362   1.000
    H66     H    0.04016   0.13218   0.87006   1.000
    H67     H    0.54016   0.13217   0.87006   1.000
    H68     H    0.81297   0.51307   0.68379   1.000
    H69     H    0.08186   0.50699   0.38388   1.000
    H70     H    0.58185   0.50699   0.38388   1.000
    H71     H    0.12890   0.53159   0.30950   1.000
    H72     H    0.98729   0.97558   0.77542   1.000
    H73     H    0.48728   0.97558   0.77542   1.000
    H74     H    0.06299   0.01306   0.81623   1.000
    H75     H    0.56298   0.01306   0.81623   1.000
    H76     H    0.33186   0.00698   0.11610   1.000
    H77     H    0.83185   0.00698   0.11612   1.000
    H78     H    0.37890   0.03158   0.19040   1.000
    H79     H    0.87889   0.03158   0.19040   1.000
    H80     H    0.23643   0.03748   0.20684   1.000
    H81     H    0.73642   0.03748   0.20684   1.000
    H82     H    0.21619   0.97397   0.26691   1.000
    H83     H    0.71619   0.97397   0.26691   1.000
    H84     H    0.22240   0.92957   0.13441   1.000
    H85     H    0.72239   0.92958   0.13441   1.000
    H86     H    0.29823   0.87393   0.13348   1.000
    H87     H    0.79822   0.87393   0.13348   1.000
    H88     H    0.45665   0.97258   0.10276   1.000
    H89     H    0.95664   0.97258   0.10276   1.000
    H90     H    0.40439   0.89843   0.11539   1.000
    H91     H    0.90439   0.89843   0.11539   1.000
    H92     H    0.05405   0.85247   0.21639   1.000
    H93     H    0.55405   0.85247   0.21639   1.000
    H94     H    0.04016   0.86785   0.12995   1.000
    H95     H    0.54015   0.86785   0.12995   1.000
    H96     H    0.98729   0.02444   0.22459   1.000
    H97     H    0.48728   0.02444   0.22459   1.000
    H98     H    0.06297   0.98696   0.18378   1.000
    H99     H    0.56296   0.98696   0.18378   1.000
    C100    C    0.01121   0.17880   0.13830   1.000
    C101    C    0.51121   0.17880   0.13834   1.000
    C102    C    0.46536   0.17535   0.20303   1.000
    C103    C    0.96535   0.17535   0.20303   1.000
    C104    C    0.01862   0.22070   0.02280   1.000
    H105    H    0.08186   0.38388   0.49303   1.000
    H106    H    0.58185   0.38388   0.49303   1.000
    H107    H    0.12890   0.30952   0.46843   1.000
    H108    H    0.62890   0.30952   0.46843   1.000
    H109    H    0.48642   0.29317   0.46253   1.000
    H110    H    0.98642   0.29317   0.46253   1.000
    H111    H    0.46620   0.23310   0.52600   1.000
    H112    H    0.96619   0.23310   0.52605   1.000
    H113    H    0.47240   0.36560   0.57045   1.000
    H114    H    0.97240   0.36560   0.57045   1.000
    H115    H    0.04824   0.36653   0.62610   1.000
    H116    H    0.54823   0.36652   0.62610   1.000
    H117    H    0.20666   0.39724   0.52745   1.000
    H118    H    0.70665   0.39724   0.52745   1.000
    H119    H    0.15440   0.38461   0.60160   1.000
    H120    H    0.65440   0.38461   0.60160   1.000
    H121    H    0.30406   0.28361   0.64750   1.000
    H122    H    0.80405   0.28361   0.64755   1.000
    H123    H    0.29016   0.37006   0.63218   1.000
    H124    H    0.79015   0.37006   0.63218   1.000
    H125    H    0.23729   0.27542   0.47557   1.000
    H126    H    0.73728   0.27541   0.47557   1.000
    H127    H    0.31298   0.31623   0.51306   1.000
    H128    H    0.81297   0.31623   0.51306   1.000
    H129    H    0.08186   0.61614   0.50698   1.000
    H130    H    0.58185   0.61614   0.50698   1.000
    H131    H    0.12890   0.69050   0.53150   1.000
    H132    H    0.62889   0.69050   0.53150   1.000
    H133    H    0.48642   0.70685   0.53740   1.000
    H134    H    0.98641   0.70685   0.53748   1.000
    H135    H    0.46619   0.76692   0.47396   1.000
    H136    H    0.96620   0.76693   0.47396   1.000
    H137    H    0.47240   0.63442   0.42956   1.000
    H138    H    0.97239   0.63442   0.42956   1.000
    H139    H    0.04823   0.63350   0.37391   1.000
    H140    H    0.54823   0.63350   0.37391   1.000
    H141    H    0.20666   0.60278   0.47256   1.000
    H142    H    0.70665   0.60278   0.47256   1.000
    H143    H    0.15440   0.61541   0.39841   1.000
    H144    H    0.65440   0.61541   0.39841   1.000
    H145    H    0.30406   0.71641   0.35246   1.000
    H146    H    0.80405   0.71641   0.35245   1.000
    H147    H    0.29015   0.62996   0.36780   1.000
    H148    H    0.79015   0.62996   0.36783   1.000
    H149    H    0.23728   0.72461   0.52444   1.000
    H150    H    0.73728   0.72461   0.52444   1.000
    H151    H    0.31297   0.68379   0.48695   1.000
    H152    H    0.81297   0.68379   0.48695   1.000
    H153    H    0.08186   0.49304   0.61610   1.000
    H154    H    0.58185   0.49304   0.61610   1.000
    H155    H    0.12890   0.46843   0.69050   1.000
    H156    H    0.62889   0.46843   0.69050   1.000
    H157    H    0.48642   0.46253   0.70685   1.000
    H158    H    0.98641   0.46253   0.70684   1.000
    H159    H    0.46620   0.52606   0.76692   1.000
    H160    H    0.96620   0.52605   0.76692   1.000
    H161    H    0.47240   0.57046   0.63442   1.000
    H162    H    0.97239   0.57046   0.63442   1.000
    H163    H    0.04824   0.62610   0.63349   1.000
    H164    H    0.54823   0.62610   0.63349   1.000
    H165    H    0.20666   0.52745   0.60277   1.000
    H166    H    0.70665   0.52745   0.60277   1.000
    H167    H    0.15440   0.60160   0.61540   1.000
    H168    H    0.65440   0.60161   0.61540   1.000
    H169    H    0.30406   0.64755   0.71640   1.000
    H170    H    0.80405   0.64756   0.71640   1.000
    H171    H    0.29015   0.63219   0.62996   1.000
    H172    H    0.79015   0.63219   0.62996   1.000
    H173    H    0.23728   0.47557   0.72460   1.000
    H174    H    0.73728   0.47557   0.72460   1.000
    H175    H    0.31298   0.51307   0.68379   1.000
    N176    N    0.80724   0.95115   0.20597   1.000
    N177    N    0.47013   0.92241   0.19795   1.000
    N178    N    0.97012   0.92241   0.19795   1.000
    N179    N    0.05726   0.29403   0.54880   1.000
    N180    N    0.55726   0.29403   0.54887   1.000
    N181    N    0.22014   0.30206   0.57761   1.000
    N182    N    0.72013   0.30206   0.57761   1.000
    N183    N    0.05726   0.70598   0.45114   1.000
    H184    H    0.62889   0.53159   0.30950   1.000
    H185    H    0.48642   0.53749   0.29316   1.000
    H186    H    0.98641   0.53749   0.29316   1.000
    H187    H    0.46620   0.47396   0.23300   1.000
    H188    H    0.96619   0.47396   0.23300   1.000
    H189    H    0.47240   0.42956   0.36559   1.000
    H190    H    0.97240   0.42956   0.36559   1.000
    H191    H    0.04824   0.37392   0.36652   1.000
    H192    H    0.54823   0.37392   0.36652   1.000
    H193    H    0.20666   0.47257   0.39724   1.000
    H194    H    0.70665   0.47257   0.39724   1.000
    H195    H    0.15440   0.39842   0.38461   1.000
    H196    H    0.65440   0.39842   0.38461   1.000
    H197    H    0.30405   0.35246   0.28361   1.000
    H198    H    0.80405   0.35246   0.28361   1.000
    H199    H    0.29016   0.36784   0.37005   1.000
    H200    H    0.79015   0.36784   0.37005   1.000
    H201    H    0.23728   0.52445   0.27541   1.000
    H202    H    0.73728   0.52445   0.27541   1.000
    H203    H    0.31297   0.48695   0.31622   1.000
    H204    H    0.81297   0.48695   0.31622   1.000
    C205    C    0.35939   0.83783   0.98729   1.000
    C206    C    0.85938   0.83784   0.98729   1.000
    C207    C    0.26151   0.75811   0.00000   1.000
    C208    C    0.76150   0.75812   0.00000   1.000
    C209    C    0.30223   0.70289   0.03949   1.000
    C210    C    0.80222   0.70290   0.03900   1.000
    C211    C    0.26259   0.83290   0.90320   1.000
    C212    C    0.76258   0.83290   0.90320   1.000
    C213    C    0.22143   0.79041   0.85050   1.000
    C214    C    0.72143   0.79041   0.85058   1.000
    C215    C    0.42416   0.85919   0.94424   1.000
    C216    C    0.92415   0.85919   0.94424   1.000
    C217    C    0.01121   0.82123   0.86167   1.000
    C218    C    0.51121   0.82123   0.86167   1.000
    C219    C    0.46535   0.82467   0.79698   1.000
    C220    C    0.96535   0.82467   0.79698   1.000
    C221    C    0.01862   0.77932   0.97720   1.000
    C222    C    0.51861   0.77932   0.97720   1.000
    C223    C    0.05392   0.70937   0.96704   1.000
    C224    C    0.55391   0.70937   0.96704   1.000
    C225    C    0.35939   0.16219   0.01273   1.000
    C226    C    0.85939   0.16219   0.01270   1.000
    C227    C    0.26151   0.24191   0.99961   1.000
    C228    C    0.76150   0.24191   0.99961   1.000
    C229    C    0.30224   0.29713   0.96052   1.000
    C230    C    0.80223   0.29713   0.96052   1.000
    C231    C    0.26259   0.16712   0.09673   1.000
    C232    C    0.76258   0.16712   0.09673   1.000
    C233    C    0.22143   0.20961   0.14944   1.000
    C234    C    0.72143   0.20961   0.14944   1.000
    C235    C    0.42416   0.14083   0.05577   1.000
    C236    C    0.92415   0.14083   0.05577   1.000
    O237    O    0.11193   0.48311   0.82014   1.000
    O238    O    0.61193   0.48310   0.82013   1.000
    O239    O    0.02215   0.40555   0.81690   1.000
    O240    O    0.52214   0.40555   0.81690   1.000
    O241    O    0.48452   0.65227   0.77308   1.000
    O242    O    0.98451   0.65226   0.77308   1.000
    O243    O    0.42733   0.68652   0.67742   1.000
    O244    O    0.92733   0.68652   0.67742   1.000
    O245    O    0.15013   0.70289   0.69728   1.000
    O246    O    0.65012   0.70289   0.69729   1.000
    C247    C    0.51861   0.22071   0.02281   1.000
    C248    C    0.05392   0.29065   0.03297   1.000
    C249    C    0.55391   0.29065   0.03297   1.000
    C250    C    0.35940   0.01273   0.83783   1.000
    C251    C    0.85939   0.01273   0.83783   1.000
    C252    C    0.26151   0.99961   0.75811   1.000
    C253    C    0.76151   0.99961   0.75811   1.000
    C254    C    0.30223   0.96052   0.70289   1.000
    C255    C    0.80223   0.96052   0.70289   1.000
    C256    C    0.26259   0.09673   0.83290   1.000
    C257    C    0.76259   0.09673   0.83290   1.000
    C258    C    0.22144   0.14944   0.79041   1.000
    C259    C    0.72143   0.14944   0.79040   1.000
    C260    C    0.42416   0.05578   0.85919   1.000
    C261    C    0.92416   0.05578   0.85910   1.000
    C262    C    0.01122   0.13835   0.82122   1.000
    C263    C    0.51121   0.13835   0.82122   1.000
    C264    C    0.46536   0.20303   0.82467   1.000
    C265    C    0.96535   0.20304   0.82466   1.000
    C266    C    0.01862   0.02281   0.77931   1.000
    C267    C    0.51862   0.02281   0.77931   1.000
    C268    C    0.05392   0.03298   0.70930   1.000
    C269    C    0.55392   0.03298   0.70930   1.000
    C270    C    0.35938   0.98729   0.16218   1.000
    C271    C    0.85937   0.98729   0.16218   1.000
    C272    C    0.26150   0.00000   0.24190   1.000
    C273    C    0.76150   0.00000   0.24190   1.000
    C274    C    0.30224   0.03950   0.29712   1.000
    C275    C    0.80223   0.03950   0.29712   1.000
    C276    C    0.26258   0.90329   0.16710   1.000
    C277    C    0.76257   0.90329   0.16711   1.000
    C278    C    0.22143   0.85058   0.20961   1.000
    C279    C    0.72142   0.85058   0.20961   1.000
    C280    C    0.42415   0.94424   0.14080   1.000
    C281    C    0.92414   0.94425   0.14080   1.000
    C282    C    0.01121   0.86167   0.17879   1.000
    C283    C    0.51120   0.86167   0.17879   1.000
    C284    C    0.46535   0.79699   0.17530   1.000
    C285    C    0.96534   0.79699   0.17534   1.000
    C286    C    0.01861   0.97721   0.22070   1.000
    C287    C    0.51860   0.97721   0.22070   1.000
    C288    C    0.05391   0.96705   0.29065   1.000
    C289    C    0.55391   0.96704   0.29060   1.000
    C290    C    0.10939   0.33783   0.51274   1.000
    C291    C    0.60939   0.33783   0.51274   1.000
    C292    C    0.01151   0.25811   0.49962   1.000
    C293    C    0.51151   0.25810   0.49962   1.000
    C294    C    0.05224   0.20288   0.46051   1.000
    C295    C    0.55223   0.20288   0.46051   1.000
    C296    C    0.01259   0.33289   0.59674   1.000
    C297    C    0.51259   0.33289   0.59674   1.000
    C298    C    0.47143   0.29040   0.64945   1.000
    C299    C    0.97143   0.29040   0.64945   1.000
    C300    C    0.17416   0.35918   0.55578   1.000
    C301    C    0.67416   0.35918   0.55578   1.000
    C302    C    0.26121   0.32121   0.63835   1.000
    C303    C    0.76121   0.32121   0.63830   1.000
    C304    C    0.21536   0.32466   0.70304   1.000
    C305    C    0.71535   0.32466   0.70304   1.000
    C306    C    0.26861   0.27931   0.52280   1.000
    C307    C    0.76861   0.27931   0.52282   1.000
    C308    C    0.30392   0.20936   0.53298   1.000
    C309    C    0.80391   0.20936   0.53298   1.000
    C310    C    0.10939   0.66219   0.48728   1.000
    C311    C    0.60939   0.66220   0.48720   1.000
    C312    C    0.01151   0.74191   0.50040   1.000
    C313    C    0.51150   0.74192   0.50039   1.000
    C314    C    0.05224   0.79713   0.53951   1.000
    C315    C    0.55223   0.79714   0.53950   1.000
    C316    C    0.01259   0.66713   0.40327   1.000
    C317    C    0.51258   0.66713   0.40327   1.000
    C318    C    0.47143   0.70962   0.35057   1.000
    C319    C    0.97142   0.70962   0.35056   1.000
    C320    C    0.17416   0.64084   0.44423   1.000
    C321    C    0.67415   0.64084   0.44423   1.000
    C322    C    0.26121   0.67881   0.36160   1.000
    C323    C    0.76120   0.67881   0.36166   1.000
    C324    C    0.21536   0.67537   0.29697   1.000
    C325    C    0.71535   0.67536   0.29697   1.000
    C326    C    0.26861   0.72071   0.47720   1.000
    C327    C    0.76861   0.72072   0.47719   1.000
    C328    C    0.30391   0.79066   0.46703   1.000
    C329    C    0.80391   0.79066   0.46703   1.000
    C330    C    0.10940   0.51274   0.66219   1.000
    C331    C    0.60939   0.51274   0.66219   1.000
    C332    C    0.01152   0.49962   0.74191   1.000
    C333    C    0.51151   0.49962   0.74191   1.000
    C334    C    0.05224   0.46051   0.79713   1.000
    C335    C    0.55223   0.46051   0.79713   1.000
    C336    C    0.01259   0.59674   0.66713   1.000
    C337    C    0.51258   0.59674   0.66713   1.000
    C338    C    0.47143   0.64945   0.70962   1.000
    C339    C    0.97142   0.64945   0.70962   1.000
    C340    C    0.17416   0.55579   0.64084   1.000
    C341    C    0.67416   0.55579   0.64084   1.000
    C342    C    0.26121   0.63836   0.67880   1.000
    C343    C    0.76120   0.63836   0.67880   1.000
    C344    C    0.21536   0.70305   0.67536   1.000
    C345    C    0.71535   0.70305   0.67536   1.000
    C346    C    0.26861   0.52282   0.72071   1.000
    C347    C    0.76861   0.52282   0.72071   1.000
    C348    C    0.30392   0.53299   0.79060   1.000
    C349    C    0.80391   0.53299   0.79066   1.000
    C350    C    0.10939   0.48728   0.33782   1.000
    C351    C    0.60938   0.48728   0.33782   1.000
    C352    C    0.01151   0.50040   0.25810   1.000
    C353    C    0.51150   0.50040   0.25810   1.000
    C354    C    0.05224   0.53951   0.20288   1.000
    C355    C    0.55223   0.53951   0.20288   1.000
    C356    C    0.01259   0.40328   0.33289   1.000
    C357    C    0.51258   0.40328   0.33289   1.000
    C358    C    0.47143   0.35057   0.29000   1.000
    C359    C    0.97142   0.35057   0.29000   1.000
    C360    C    0.17416   0.44424   0.35918   1.000
    C361    C    0.67415   0.44424   0.35918   1.000
    C362    C    0.26121   0.36166   0.32121   1.000
    C363    C    0.76120   0.36166   0.32121   1.000
    C364    C    0.21536   0.29698   0.32466   1.000
    C365    C    0.71535   0.29698   0.32465   1.000
    C366    C    0.26861   0.47720   0.27930   1.000
    C367    C    0.76861   0.47720   0.27930   1.000
    C368    C    0.30391   0.46704   0.20930   1.000
    C369    C    0.80391   0.46704   0.20930   1.000
    N370    N    0.30726   0.79404   0.95115   1.000
    N371    N    0.80725   0.79404   0.95115   1.000
    N372    N    0.47013   0.80207   0.92241   1.000
    N373    N    0.97012   0.80207   0.92241   1.000
    N374    N    0.30726   0.20598   0.04886   1.000
    N375    N    0.80725   0.20598   0.04886   1.000
    N376    N    0.47013   0.19795   0.07760   1.000
    N377    N    0.97013   0.19796   0.07760   1.000
    N378    N    0.30726   0.04887   0.79404   1.000
    N379    N    0.80726   0.04887   0.79404   1.000
    N380    N    0.47014   0.07761   0.80206   1.000
    N381    N    0.97013   0.07761   0.80206   1.000
    N382    N    0.30725   0.95115   0.20597   1.000
    N383    N    0.55725   0.70599   0.45114   1.000
    N384    N    0.22013   0.69797   0.42240   1.000
    N385    N    0.72013   0.69796   0.42240   1.000
    N386    N    0.05726   0.54888   0.70598   1.000
    N387    N    0.55726   0.54888   0.70598   1.000
    N388    N    0.22013   0.57762   0.69796   1.000
    N389    N    0.72013   0.57762   0.69796   1.000
    N390    N    0.05726   0.45114   0.29403   1.000
    N391    N    0.55725   0.45114   0.29403   1.000
    N392    N    0.22013   0.42240   0.30205   1.000
    N393    N    0.72013   0.42240   0.30205   1.000
    O394    O    0.36193   0.67989   0.01690   1.000
    O395    O    0.86192   0.67989   0.01690   1.000
    O396    O    0.27214   0.68313   0.09446   1.000
    O397    O    0.77213   0.68313   0.09446   1.000
    O398    O    0.23452   0.72694   0.84776   1.000
    O399    O    0.73451   0.72694   0.84776   1.000
    O400    O    0.17734   0.82261   0.81350   1.000
    O401    O    0.67733   0.82261   0.81350   1.000
    O402    O    0.40013   0.80274   0.79714   1.000
    O403    O    0.90012   0.80274   0.79714   1.000
    O404    O    0.49652   0.84949   0.74489   1.000
    O405    O    0.99651   0.84949   0.74489   1.000
    O406    O    0.10008   0.69185   0.01113   1.000
    O407    O    0.60007   0.69185   0.01113   1.000
    O408    O    0.03484   0.67457   0.91542   1.000
    O409    O    0.53483   0.67457   0.91542   1.000
    O410    O    0.36194   0.32012   0.98311   1.000
    O411    O    0.86193   0.32013   0.98311   1.000
    O412    O    0.27215   0.31689   0.90555   1.000
    O413    O    0.77214   0.31690   0.90550   1.000
    O414    O    0.23452   0.27308   0.15225   1.000
    O415    O    0.73451   0.27308   0.15225   1.000
    O416    O    0.17734   0.17741   0.18651   1.000
    O417    O    0.67733   0.17741   0.18651   1.000
    O418    O    0.40013   0.19728   0.20287   1.000
    O419    O    0.90012   0.19728   0.20287   1.000
    O420    O    0.49652   0.15053   0.25512   1.000
    O421    O    0.99651   0.15052   0.25510   1.000
    O422    O    0.10009   0.30817   0.98888   1.000
    O423    O    0.60008   0.30817   0.98888   1.000
    O424    O    0.03484   0.32545   0.08459   1.000
    O425    O    0.53483   0.32545   0.08459   1.000
    O426    O    0.36194   0.98311   0.67989   1.000
    O427    O    0.86192   0.98312   0.67989   1.000
    O428    O    0.27214   0.90556   0.68313   1.000
    O429    O    0.77213   0.90556   0.68312   1.000
    O430    O    0.23452   0.15226   0.72694   1.000
    O431    O    0.73452   0.15225   0.72694   1.000
    O432    O    0.17734   0.18651   0.82260   1.000
    O433    O    0.67734   0.18651   0.82260   1.000
    O434    O    0.40014   0.20288   0.80273   1.000
    O435    O    0.90012   0.20288   0.80274   1.000
    O436    O    0.49652   0.25512   0.84948   1.000
    O437    O    0.99651   0.25512   0.84900   1.000
    O438    O    0.10008   0.98889   0.69185   1.000
    O439    O    0.60007   0.98888   0.69185   1.000
    O440    O    0.03484   0.08460   0.67457   1.000
    O441    O    0.53483   0.08459   0.67457   1.000
    O442    O    0.36194   0.01691   0.32012   1.000
    O443    O    0.86193   0.01691   0.32012   1.000
    O444    O    0.27214   0.09446   0.31689   1.000
    O445    O    0.77214   0.09446   0.31689   1.000
    O446    O    0.23451   0.84777   0.27307   1.000
    O447    O    0.73451   0.84777   0.27307   1.000
    O448    O    0.17733   0.81351   0.17741   1.000
    O449    O    0.67733   0.81351   0.17741   1.000
    O450    O    0.40013   0.79714   0.19728   1.000
    O451    O    0.90012   0.79714   0.19728   1.000
    O452    O    0.49651   0.74490   0.15052   1.000
    O453    O    0.99651   0.74490   0.15052   1.000
    O454    O    0.10009   0.01114   0.30816   1.000
    O455    O    0.60008   0.01114   0.30816   1.000
    O456    O    0.03483   0.91543   0.32544   1.000
    O457    O    0.53482   0.91543   0.32544   1.000
    O458    O    0.11194   0.17988   0.48310   1.000
    O459    O    0.61194   0.17989   0.48310   1.000
    O460    O    0.02215   0.18312   0.40550   1.000
    O461    O    0.52214   0.18312   0.40554   1.000
    O462    O    0.48452   0.22693   0.65226   1.000
    O463    O    0.98451   0.22693   0.65226   1.000
    O464    O    0.42734   0.32260   0.68652   1.000
    O465    O    0.92733   0.32260   0.68652   1.000
    O466    O    0.15014   0.30273   0.70280   1.000
    O467    O    0.65013   0.30273   0.70288   1.000
    O468    O    0.24652   0.34948   0.75513   1.000
    O469    O    0.74652   0.34949   0.75513   1.000
    O470    O    0.35009   0.19184   0.48887   1.000
    O471    O    0.85008   0.19184   0.48887   1.000
    O472    O    0.28484   0.17457   0.58460   1.000
    O473    O    0.78483   0.17456   0.58460   1.000
    O474    O    0.11193   0.82014   0.51691   1.000
    O475    O    0.61193   0.82013   0.51691   1.000
    O476    O    0.02214   0.81691   0.59440   1.000
    O477    O    0.52214   0.81690   0.59447   1.000
    O478    O    0.48451   0.77309   0.34775   1.000
    O479    O    0.98451   0.77309   0.34775   1.000
    O480    O    0.42733   0.67742   0.31349   1.000
    O481    O    0.92733   0.67742   0.31349   1.000
    O482    O    0.15013   0.69729   0.29713   1.000
    O483    O    0.65013   0.69730   0.29713   1.000
    O484    O    0.24652   0.65053   0.24489   1.000
    O485    O    0.74651   0.65054   0.24488   1.000
    O486    O    0.35008   0.80818   0.51114   1.000
    O487    O    0.85007   0.80818   0.51114   1.000
    O488    O    0.28483   0.82546   0.41541   1.000
    O489    O    0.78482   0.82546   0.41541   1.000
    O490    O    0.24652   0.75513   0.65052   1.000
    O491    O    0.74651   0.75513   0.65053   1.000
    O492    O    0.35008   0.48888   0.80817   1.000
    O493    O    0.85008   0.48887   0.80817   1.000
    O494    O    0.28484   0.58461   0.82545   1.000
    O495    O    0.78483   0.58460   0.82545   1.000
    O496    O    0.11194   0.51692   0.17988   1.000
    O497    O    0.61193   0.51692   0.17988   1.000
    O498    O    0.02214   0.59447   0.18311   1.000
    O499    O    0.52214   0.59447   0.18311   1.000
    O500    O    0.48452   0.34776   0.22693   1.000
    O501    O    0.98451   0.34776   0.22693   1.000
    O502    O    0.42734   0.31350   0.32259   1.000
    O503    O    0.92733   0.31350   0.32259   1.000
    O504    O    0.15014   0.29713   0.30272   1.000
    O505    O    0.65013   0.29713   0.30272   1.000
    O506    O    0.24652   0.24489   0.34948   1.000
    O507    O    0.74652   0.24489   0.34948   1.000
    O508    O    0.35008   0.51115   0.19184   1.000
    O509    O    0.85007   0.51115   0.19184   1.000
    O510    O    0.28483   0.41542   0.17456   1.000
    O511    O    0.78483   0.41542   0.17456   1.000
loop_
    _geom_bond_atom_site_label_1
    _geom_bond_atom_site_label_2
    _geom_bond_distance
    _geom_bond_site_symmetry_2
    _ccdc_geom_bond_type
    C208   H5        1.11255      .   S
    C208   C210      1.53034      .   S
    C208   N371      1.46271  1_554   S
    C208   H7        1.09508  1_554   S
    C207   H4        1.11253      .   S
    C207   C209      1.53525      .   S
    C207   N370      1.46272  1_554   S
    C207   H6        1.09507  1_554   S
    H1     C206      1.11100  1_554   S
    H0     C205      1.11100  1_554   S
    O407   C224      1.26312  1_554   S
    O406   C223      1.26312  1_554   S
    C226   N375      1.47423      .   S
    C226   C236      1.52105      .   S
    C226   H27       1.09795  1_554   S
    C226   H25       1.11078  1_554   S
    C225   N374      1.47394      .   S
    C225   C235      1.52073      .   S
    C225   H26       1.09842  1_554   S
    C225   H24       1.11098  1_554   S
    H47    C247      1.10971      .   S
    H46    C104      1.10967      .   S
    O394   C209      1.26685      .   S
    O395   C210      1.26346      .   S
    C104   C248      1.53929      .   S
    C104   N377      1.47151  1_455   S
    C104   H44       1.09836  1_454   S
    C247   C249      1.53925      .   S
    C247   N376      1.47125      .   S
    C247   H45       1.09853  1_554   S
    H20    C221      1.09863  1_654   S
    H21    C222      1.09863  1_554   S
    H31    C228      1.09881  1_554   S
    H30    C227      1.09889  1_554   S
    H37    C236      1.11089      .   S
    H36    C235      1.11090      .   S
    H3     C206      1.09711  1_554   S
    H2     C205      1.09710  1_554   S
    C249   O425      1.27876      .   S
    C249   O423      1.26325  1_554   S
    C248   O424      1.27875      .   S
    C248   O422      1.26326  1_554   S
    C210   O397      1.28760      .   S
    C209   O396      1.27934      .   S
    N374   C231      1.46808      .   S
    N374   C227      1.46799  1_554   S
    N375   C232      1.46805      .   S
    N375   C228      1.46798  1_554   S
    C236   N377      1.47338      .   S
    C236   H39       1.09699      .   S
    C235   N376      1.47338      .   S
    C235   H38       1.09697      .   S
    H33    C232      1.10971      .   S
    H32    C231      1.10934      .   S
    N377   C100      1.46612  1_655   S
    N376   C101      1.46664      .   S
    C231   H34       1.09799      .   S
    C231   C233      1.53594      .   S
    C232   H35       1.09799      .   S
    C232   C234      1.53595      .   S
    H88    C280      1.11066      .   S
    H89    C281      1.11065      .   S
    H90    C280      1.09672      .   S
    H91    C281      1.09672      .   S
    H76    C270      1.11130  1_545   S
    H77    C271      1.11097  1_545   S
    H95    C283      1.10812      .   S
    H94    C282      1.10814      .   S
    H43    C101      1.10820      .   S
    H42    C100      1.10813      .   S
    H86    C276      1.09783      .   S
    H87    C277      1.09797      .   S
    H84    C276      1.10909      .   S
    H85    C277      1.10921      .   S
    C100   H40       1.09677      .   S
    C100   C103      1.53229  1_455   S
    C101   H41       1.09649      .   S
    C101   C102      1.53150      .   S
    C280   C270      1.52092      .   S
    C280   N177      1.47379      .   S
    C281   C271      1.52091      .   S
    C281   N178      1.47382      .   S
    C234   O415      1.27791      .   S
    C234   O417      1.26305      .   S
    C233   O414      1.27791      .   S
    C233   O416      1.26304      .   S
    O452   C284      1.27492      .   S
    O453   C285      1.27525      .   S
    C271   H79       1.09760  1_565   S
    C271   N176      1.47400      .   S
    C270   H78       1.09759  1_565   S
    C270   N382      1.47400      .   S
    C276   N382      1.46810      .   S
    C276   C278      1.53614      .   S
    C277   N176      1.46799      .   S
    C277   C279      1.53602      .   S
    O511   C369      1.27813      .   S
    O510   C368      1.27813      .   S
    C284   C283      1.53147      .   S
    C284   O450      1.27280      .   S
    C285   C282      1.53158  1_655   S
    C285   O451      1.27249      .   S
    O448   C278      1.26307      .   S
    O449   C279      1.26306      .   S
    C283   N177      1.46666      .   S
    C283   H93       1.09661      .   S
    C282   N178      1.46677  1_455   S
    C282   H92       1.09660      .   S
    O497   C355      1.26689      .   S
    O496   C354      1.26687      .   S
    O499   C355      1.27925      .   S
    O498   C354      1.27925      .   S
    H98    C286      1.10965      .   S
    H99    C287      1.10965      .   S
    O508   C368      1.26320      .   S
    O509   C369      1.26319      .   S
    N177   C287      1.47136      .   S
    N178   C286      1.47151  1_655   S
    O419   C103      1.27248      .   S
    O418   C102      1.27247      .   S
    C354   C352      1.53148      .   S
    C355   C353      1.53146      .   S
    C103   O421      1.27501      .   S
    C102   O420      1.27532      .   S
    N176   C273      1.46272  1_565   S
    N382   C272      1.46273  1_565   S
    H81    C273      1.11343      .   S
    H80    C272      1.11340      .   S
    C368   C366      1.54024      .   S
    C369   C367      1.54023      .   S
    C278   O446      1.27776      .   S
    C279   O447      1.27775      .   S
    C286   H96       1.09844  1_465   S
    C286   C288      1.53935      .   S
    C287   H97       1.09844  1_565   S
    C287   C289      1.53847      .   S
    O501   C359      1.27019      .   S
    O500   C358      1.27020      .   S
    H188   C352      1.09992  1_655   S
    H187   C353      1.09974      .   S
    C272   H82       1.09512  1_545   S
    C272   C274      1.53545      .   S
    C273   H83       1.09508  1_545   S
    C273   C275      1.53547      .   S
    O485   C325      1.27529      .   S
    O484   C324      1.27523      .   S
    C353   H185      1.10838      .   S
    C353   N391      1.46808      .   S
    C352   H186      1.10847  1_455   S
    C352   N390      1.46809      .   S
    H201   C366      1.09887      .   S
    H202   C367      1.09887      .   S
    C366   N392      1.47135      .   S
    C366   H203      1.10966      .   S
    C367   N393      1.47134      .   S
    C367   H204      1.10966      .   S
    H198   C363      1.09662      .   S
    H197   C362      1.09659      .   S
    C359   O503      1.26696      .   S
    C359   C356      1.54037  1_655   S
    C358   O502      1.26696      .   S
    C358   C357      1.54024      .   S
    C289   O455      1.26357  1_565   S
    C289   O457      1.27917      .   S
    C288   O454      1.26328  1_565   S
    C288   O456      1.27868      .   S
    N391   C357      1.46800      .   S
    N391   C351      1.47400      .   S
    N390   C356      1.46799      .   S
    N390   C350      1.47400      .   S
    C325   O483      1.27248      .   S
    C325   C323      1.53150      .   S
    C324   O482      1.27248      .   S
    C324   C322      1.53051      .   S
    C274   O444      1.27926      .   S
    C274   O442      1.26690      .   S
    C275   O445      1.27923      .   S
    C275   O443      1.26684      .   S
    N393   C363      1.46666      .   S
    N393   C361      1.47350      .   S
    N392   C362      1.46666      .   S
    N392   C360      1.47351      .   S
    O504   C364      1.27251      .   S
    O505   C365      1.27248      .   S
    H184   C351      1.09886      .   S
    H71    C350      1.09887      .   S
    O480   C318      1.26315      .   S
    O481   C319      1.26303      .   S
    C362   C364      1.53142      .   S
    C362   H199      1.10814      .   S
    C363   C365      1.53141      .   S
    C363   H200      1.10812      .   S
    C365   O507      1.27530      .   S
    C364   O506      1.27524      .   S
    C357   H189      1.10919      .   S
    C357   H192      1.09798      .   S
    C356   H190      1.10936  1_455   S
    C356   H191      1.09796      .   S
    C350   C360      1.52080      .   S
    C350   H69       1.11118      .   S
    C351   C361      1.52081      .   S
    C351   H70       1.11118      .   S
    O478   C318      1.27792      .   S
    O479   C319      1.27791      .   S
    C319   C316      1.53606  1_655   S
    C318   C317      1.53581      .   S
    H146   C323      1.09666      .   S
    H145   C322      1.09645      .   S
    C360   H195      1.09690      .   S
    C360   H193      1.11092      .   S
    C361   H196      1.09691      .   S
    C361   H194      1.11091      .   S
    C322   H147      1.10829      .   S
    C322   N384      1.46760      .   S
    C323   H148      1.10820      .   S
    C323   N385      1.46664      .   S
    H140   C317      1.09798      .   S
    H139   C316      1.09799      .   S
    H144   C321      1.09698      .   S
    H143   C320      1.09700      .   S
    C317   H137      1.10935      .   S
    C317   N383      1.46808      .   S
    C316   H138      1.10948  1_455   S
    C316   N183      1.46805      .   S
    O460   C294      1.28002      .   S
    O461   C295      1.27935      .   S
    O488   C328      1.27872      .   S
    O489   C329      1.27878      .   S
    N384   C320      1.47339      .   S
    N384   C326      1.47135      .   S
    N385   C321      1.47338      .   S
    N385   C327      1.47126      .   S
    C321   H142      1.11090      .   S
    C321   C311      1.51994      .   S
    C320   H141      1.11090      .   S
    C320   C310      1.52080      .   S
    N383   C311      1.47330      .   S
    N383   C313      1.46798      .   S
    N183   C310      1.47403      .   S
    N183   C312      1.46806      .   S
    C295   O459      1.26685      .   S
    C295   C293      1.53147      .   S
    C294   O458      1.26685      .   S
    C294   C292      1.53148      .   S
    H109   C293      1.10845      .   S
    H110   C292      1.10854  1_655   S
    C328   C326      1.53930      .   S
    C328   O486      1.26350      .   S
    C329   C327      1.53925      .   S
    C329   O487      1.26344      .   S
    H107   C290      1.09871      .   S
    H108   C291      1.09870      .   S
    H136   C312      1.09912  1_655   S
    H135   C313      1.09880      .   S
    H126   C307      1.09891      .   S
    H125   C306      1.09858      .   S
    C327   H152      1.10970      .   S
    C327   H150      1.09891      .   S
    C326   H151      1.10968      .   S
    C326   H149      1.09875      .   S
    C311   H130      1.11165      .   S
    C311   H132      1.09854      .   S
    C310   H129      1.11111      .   S
    C310   H131      1.09731      .   S
    O471   C309      1.26345      .   S
    O470   C308      1.26347      .   S
    H105   C290      1.11116      .   S
    H106   C291      1.11117      .   S
    C292   H112      1.09899  1_455   S
    C292   N179      1.46705      .   S
    C293   H111      1.09833      .   S
    C293   N180      1.46797      .   S
    C313   H133      1.10737      .   S
    C313   C315      1.53149      .   S
    C312   H134      1.10848  1_455   S
    C312   C314      1.53147      .   S
    C290   N179      1.47327      .   S
    C290   C300      1.52072      .   S
    C291   N180      1.47396      .   S
    C291   C301      1.52072      .   S
    H127   C306      1.10962      .   S
    H128   C307      1.10970      .   S
    O475   C315      1.26686      .   S
    O474   C314      1.26683      .   S
    C306   C308      1.53933      .   S
    C306   N181      1.47154      .   S
    C307   C309      1.53926      .   S
    C307   N182      1.47124      .   S
    H118   C301      1.11089      .   S
    H117   C300      1.11092      .   S
    C309   O473      1.27876      .   S
    C308   O472      1.27873      .   S
    C315   O477      1.27932      .   S
    C314   O476      1.27811      .   S
    N179   C296      1.46896      .   S
    N180   C297      1.46807      .   S
    C301   N182      1.47339      .   S
    C301   H120      1.09698      .   S
    C300   N181      1.47337      .   S
    C300   H119      1.09697      .   S
    H113   C297      1.10934      .   S
    H114   C296      1.10950  1_655   S
    N181   C302      1.46665      .   S
    N182   C303      1.46584      .   S
    C296   H115      1.09799      .   S
    C296   C299      1.53606  1_455   S
    C297   H116      1.09798      .   S
    C297   C298      1.53594      .   S
    H165   C340      1.11101      .   S
    H166   C341      1.11103      .   S
    H167   C340      1.09699      .   S
    H168   C341      1.09699      .   S
    H153   C330      1.11172      .   S
    H154   C331      1.11170      .   S
    H172   C343      1.10811      .   S
    H171   C342      1.10807      .   S
    H123   C302      1.10820      .   S
    H124   C303      1.10809      .   S
    H164   C337      1.09806      .   S
    H163   C336      1.09804      .   S
    H162   C336      1.10948  1_655   S
    H161   C337      1.10931      .   S
    C303   H122      1.09681      .   S
    C303   C305      1.53232      .   S
    C302   H121      1.09645      .   S
    C302   C304      1.53149      .   S
    C341   C331      1.52079      .   S
    C341   N389      1.47331      .   S
    C340   C330      1.52077      .   S
    C340   N388      1.47332      .   S
    C299   O463      1.27790      .   S
    C299   O465      1.26306      .   S
    C298   O462      1.27791      .   S
    C298   O464      1.26305      .   S
    O490   C344      1.27528      .   S
    O491   C345      1.27528      .   S
    C330   H155      1.09872      .   S
    C330   N386      1.47402      .   S
    C331   H156      1.09874      .   S
    C331   N387      1.47401      .   S
    C336   N386      1.46796      .   S
    C336   C339      1.53604  1_455   S
    C337   N387      1.46793      .   S
    C337   C338      1.53591      .   S
    O440   C268      1.27802      .   S
    O441   C269      1.27801      .   S
    C345   C343      1.53141      .   S
    C345   O246      1.27250      .   S
    C344   C342      1.53142      .   S
    C344   O245      1.27248      .   S
    O244   C339      1.26306      .   S
    O243   C338      1.26307      .   S
    C343   N389      1.46667      .   S
    C343   H170      1.09661      .   S
    C342   N388      1.46667      .   S
    C342   H169      1.09665      .   S
    O426   C254      1.26690      .   S
    O427   C255      1.26683      .   S
    O429   C255      1.27921      .   S
    O428   C254      1.27922      .   S
    H175   C346      1.10966      .   S
    H68    C347      1.10965      .   S
    O439   C269      1.26273  1_565   S
    O438   C268      1.26276  1_565   S
    N389   C347      1.47139      .   S
    N388   C346      1.47138      .   S
    O466   C304      1.27248      .   S
    O467   C305      1.27249      .   S
    C254   C252      1.53118      .   S
    C255   C253      1.53116      .   S
    C304   O468      1.27532      .   S
    C305   O469      1.27532      .   S
    N386   C332      1.46807      .   S
    N387   C333      1.46807      .   S
    H158   C332      1.10859  1_655   S
    H157   C333      1.10837      .   S
    C269   C267      1.54042      .   S
    C268   C266      1.54040      .   S
    C339   O242      1.27777      .   S
    C338   O241      1.27776      .   S
    C346   H173      1.09887      .   S
    C346   C348      1.53829      .   S
    C347   H174      1.09885      .   S
    C347   C349      1.53935      .   S
    O430   C258      1.27794      .   S
    O431   C259      1.27776      .   S
    H55    C253      1.09889  1_545   S
    H54    C252      1.09890  1_545   S
    C333   H159      1.09892      .   S
    C333   C335      1.53146      .   S
    C332   H160      1.09901  1_455   S
    C332   C334      1.53146      .   S
    O405   C220      1.27529      .   S
    O404   C219      1.27528      .   S
    C252   H52       1.10817      .   S
    C252   N378      1.46809  1_565   S
    C253   H53       1.10829      .   S
    C253   N379      1.46807  1_565   S
    H73    C267      1.09863  1_565   S
    H72    C266      1.09861  1_665   S
    C267   N380      1.47133      .   S
    C267   H75       1.10965      .   S
    C266   N381      1.47151  1_455   S
    C266   H74       1.10967      .   S
    H65    C263      1.09658      .   S
    H64    C262      1.09664      .   S
    C259   O433      1.26306      .   S
    C259   C257      1.53602      .   S
    C258   O432      1.26298      .   S
    C258   C256      1.53591      .   S
    C348   O492      1.26378      .   S
    C348   O494      1.27930      .   S
    C349   O493      1.26345      .   S
    C349   O495      1.27864      .   S
    N378   C256      1.46798      .   S
    N378   C250      1.47401      .   S
    N379   C257      1.46805      .   S
    N379   C251      1.47402      .   S
    C220   O403      1.27248      .   S
    C220   C217      1.53163  1_655   S
    C219   O402      1.27250      .   S
    C219   C218      1.53150      .   S
    C335   O240      1.27924      .   S
    C335   O238      1.26684      .   S
    C334   O239      1.27918      .   S
    C334   O237      1.26685      .   S
    N380   C263      1.46666      .   S
    N380   C260      1.47349      .   S
    N381   C262      1.46678  1_655   S
    N381   C261      1.47212      .   S
    O434   C264      1.27248      .   S
    O435   C265      1.27246      .   S
    H51    C251      1.09856  1_565   S
    H50    C250      1.09829  1_565   S
    O401   C214      1.26315      .   S
    O400   C213      1.26224      .   S
    C262   C265      1.53155  1_455   S
    C262   H66       1.10809      .   S
    C263   C264      1.53143      .   S
    C263   H67       1.10817      .   S
    C265   O437      1.27155      .   S
    C264   O436      1.27521      .   S
    C256   H56       1.10921      .   S
    C256   H58       1.09796      .   S
    C257   H57       1.10919      .   S
    C257   H59       1.09794      .   S
    C251   C261      1.52033      .   S
    C251   H49       1.11115  1_545   S
    C250   C260      1.52080      .   S
    C250   H48       1.11111  1_545   S
    O399   C214      1.27792      .   S
    O398   C213      1.27786      .   S
    C213   C211      1.53579      .   S
    C214   C212      1.53474      .   S
    H16    C217      1.09665      .   S
    H17    C218      1.09664      .   S
    C261   H63       1.09771      .   S
    C261   H61       1.11210      .   S
    C260   H62       1.09691      .   S
    C260   H60       1.11093      .   S
    C218   H19       1.10820      .   S
    C218   N372      1.46664      .   S
    C217   H18       1.10821      .   S
    C217   N373      1.46677  1_455   S
    H10    C211      1.09715      .   S
    H11    C212      1.09713      .   S
    H14    C215      1.09696      .   S
    H15    C216      1.09696      .   S
    C212   H9        1.11008      .   S
    C212   N371      1.46911      .   S
    C211   H8        1.11007      .   S
    C211   N370      1.46911      .   S
    O413   C230      1.28020      .   S
    O412   C229      1.27931      .   S
    O408   C223      1.27876      .   S
    O409   C224      1.27876      .   S
    N372   C215      1.47338      .   S
    N372   C222      1.47125      .   S
    N373   C216      1.47337      .   S
    N373   C221      1.47141  1_655   S
    C216   H13       1.11092      .   S
    C216   C206      1.52084      .   S
    C215   H12       1.11092      .   S
    C215   C205      1.52084      .   S
    N371   C206      1.47403      .   S
    N370   C205      1.47405      .   S
    C229   O410      1.26686      .   S
    C229   C227      1.53134      .   S
    C230   O411      1.26684      .   S
    C230   C228      1.53132      .   S
    H29    C228      1.10816      .   S
    H28    C227      1.10811      .   S
    C223   C221      1.53926      .   S
    C224   C222      1.53926      .   S
    C222   H23       1.10970      .   S
    C221   H22       1.10970      .   S
