# CIF file generated by openbabel 2.4.90, see http://openbabel.sf.net
data_I
_chemical_name_common ''
_cell_length_a 18.343
_cell_length_b 19.757
_cell_length_c 19.757
_cell_angle_alpha 90
_cell_angle_beta 90
_cell_angle_gamma 89.999
_space_group_name_H-M_alt 'P 1'
_space_group_name_Hall 'P 1'
loop_
    _symmetry_equiv_pos_as_xyz
    x,y,z
loop_
    _atom_site_label
    _atom_site_type_symbol
    _atom_site_fract_x
    _atom_site_fract_y
    _atom_site_fract_z
    _atom_site_occupancy
    Zr0     Zr   0.38345   0.81542   0.64744   1.000
    Zr1     Zr   0.88344   0.81542   0.64743   1.000
    Zr2     Zr   0.38264   0.68535   0.87615   1.000
    Zr3     Zr   0.88264   0.68535   0.87615   1.000
    Zr4     Zr   0.38345   0.18460   0.35257   1.000
    Zr5     Zr   0.88344   0.18460   0.35250   1.000
    Zr6     Zr   0.38264   0.31467   0.12386   1.000
    Zr7     Zr   0.88264   0.31467   0.12386   1.000
    Zr8     Zr   0.38345   0.35258   0.81542   1.000
    Zr9     Zr   0.88344   0.35258   0.81542   1.000
    Zr10    Zr   0.38265   0.12386   0.68535   1.000
    Zr11    Zr   0.88264   0.12386   0.68535   1.000
    Zr12    Zr   0.38344   0.64744   0.18460   1.000
    Zr13    Zr   0.88344   0.64744   0.18400   1.000
    Zr14    Zr   0.38264   0.87616   0.31466   1.000
    Zr15    Zr   0.88263   0.87616   0.31466   1.000
    Zr16    Zr   0.13345   0.31541   0.85259   1.000
    Zr17    Zr   0.63345   0.31541   0.85250   1.000
    Zr18    Zr   0.13265   0.18534   0.62387   1.000
    Zr19    Zr   0.63264   0.18534   0.62387   1.000
    Zr20    Zr   0.13345   0.68461   0.14743   1.000
    Zr21    Zr   0.63344   0.68461   0.14743   1.000
    Zr22    Zr   0.13264   0.81468   0.37614   1.000
    Zr23    Zr   0.63264   0.81468   0.37614   1.000
    Zr24    Zr   0.13345   0.85259   0.68460   1.000
    Zr25    Zr   0.63344   0.85259   0.68460   1.000
    Zr26    Zr   0.13264   0.62387   0.81467   1.000
    Zr27    Zr   0.63264   0.62387   0.81467   1.000
    Zr28    Zr   0.13345   0.14743   0.31540   1.000
    Zr29    Zr   0.63344   0.14743   0.31541   1.000
    Zr30    Zr   0.13265   0.37615   0.18534   1.000
    Zr31    Zr   0.63264   0.37615   0.18534   1.000
    N32     N    0.88827   0.20557   0.06566   1.000
    O33     O    0.77183   0.18400   0.15831   1.000
    O34     O    0.97663   0.17727   0.17545   1.000
    O35     O    0.79553   0.26086   0.97233   1.000
    O36     O    0.85803   0.27016   0.96306   1.000
    O37     O    0.00252   0.25868   0.99320   1.000
    O38     O    0.78593   0.26509   0.11723   1.000
    O39     O    0.98601   0.27818   0.10031   1.000
    N40     N    0.38827   0.79445   0.93432   1.000
    O41     O    0.48600   0.72184   0.89968   1.000
    O42     O    0.27183   0.81602   0.84169   1.000
    O43     O    0.47663   0.82274   0.82453   1.000
    O44     O    0.29553   0.73916   0.02763   1.000
    O45     O    0.35803   0.72987   0.03693   1.000
    O46     O    0.50251   0.74134   0.00680   1.000
    O47     O    0.28593   0.73493   0.88277   1.000
    N48     N    0.88827   0.93434   0.20556   1.000
    O49     O    0.97662   0.82455   0.17727   1.000
    O50     O    0.77183   0.84170   0.18399   1.000
    O51     O    0.98600   0.89970   0.27818   1.000
    O52     O    0.79553   0.02764   0.26086   1.000
    O53     O    0.85803   0.03693   0.27013   1.000
    O54     O    0.78592   0.88278   0.26508   1.000
    O55     O    0.00252   0.00681   0.25867   1.000
    N56     N    0.63827   0.56567   0.70558   1.000
    O57     O    0.52183   0.65832   0.68400   1.000
    O58     O    0.53593   0.61724   0.76510   1.000
    O59     O    0.54553   0.47237   0.76087   1.000
    O60     O    0.60803   0.46308   0.77014   1.000
    O61     O    0.73600   0.60033   0.77819   1.000
    O62     O    0.75251   0.49320   0.75869   1.000
    O63     O    0.72662   0.67548   0.67728   1.000
    N64     N    0.63827   0.70558   0.43433   1.000
    O65     O    0.72662   0.67729   0.32439   1.000
    O66     O    0.52183   0.68401   0.34169   1.000
    O67     O    0.53592   0.76510   0.38277   1.000
    O68     O    0.75251   0.75869   0.50681   1.000
    O69     O    0.54553   0.76087   0.52764   1.000
    O70     O    0.60803   0.77016   0.53693   1.000
    O71     O    0.73600   0.77819   0.39968   1.000
    N72     N    0.38827   0.93434   0.20556   1.000
    O73     O    0.47662   0.82455   0.17727   1.000
    O74     O    0.48600   0.89970   0.27817   1.000
    O75     O    0.50252   0.00681   0.25867   1.000
    O76     O    0.27183   0.84170   0.18399   1.000
    O77     O    0.29553   0.02764   0.26085   1.000
    O78     O    0.35803   0.03694   0.27014   1.000
    O79     O    0.28592   0.88278   0.26508   1.000
    N80     N    0.38828   0.20557   0.06566   1.000
    O81     O    0.50252   0.25868   0.99318   1.000
    O82     O    0.48601   0.27818   0.10031   1.000
    O83     O    0.29554   0.26086   0.97237   1.000
    O84     O    0.35804   0.27015   0.96307   1.000
    O85     O    0.27184   0.18400   0.15831   1.000
    O86     O    0.47663   0.17728   0.17546   1.000
    O87     O    0.28593   0.26509   0.11723   1.000
    N88     N    0.13828   0.56567   0.70557   1.000
    O89     O    0.02183   0.65832   0.68400   1.000
    O90     O    0.03592   0.61724   0.76509   1.000
    O91     O    0.23601   0.60033   0.77819   1.000
    O92     O    0.25252   0.49320   0.75868   1.000
    O93     O    0.22663   0.67547   0.67728   1.000
    O94     O    0.04553   0.47237   0.76087   1.000
    O95     O    0.10804   0.46308   0.77016   1.000
    N96     N    0.38828   0.06567   0.79444   1.000
    O97     O    0.29554   0.97237   0.73915   1.000
    O98     O    0.35804   0.96308   0.72986   1.000
    O99     O    0.48601   0.10032   0.72183   1.000
    O100    O    0.47663   0.17547   0.82272   1.000
    O101    O    0.28593   0.11723   0.73492   1.000
    O102    O    0.27184   0.15831   0.81602   1.000
    O103    O    0.50252   0.99320   0.74133   1.000
    N104    N    0.88827   0.79445   0.93431   1.000
    O105    O    0.79553   0.73916   0.02763   1.000
    O106    O    0.85803   0.72987   0.03677   1.000
    O107    O    0.78592   0.73493   0.88276   1.000
    O108    O    0.00252   0.74134   0.00680   1.000
    O109    O    0.97662   0.82274   0.82453   1.000
    O110    O    0.77183   0.81602   0.84168   1.000
    O111    O    0.98601   0.72184   0.89968   1.000
    N112    N    0.88828   0.06567   0.79442   1.000
    O113    O    0.79553   0.97237   0.73914   1.000
    O114    O    0.85803   0.96308   0.72985   1.000
    O115    O    0.78593   0.11723   0.73491   1.000
    O116    O    0.97663   0.17547   0.82261   1.000
    O117    O    0.98601   0.10032   0.72182   1.000
    O118    O    0.00252   0.99320   0.74132   1.000
    O119    O    0.77183   0.15832   0.81599   1.000
    N120    N    0.63827   0.29444   0.56567   1.000
    O121    O    0.73600   0.22183   0.60032   1.000
    O122    O    0.52183   0.31601   0.65832   1.000
    O123    O    0.53593   0.23492   0.61724   1.000
    O124    O    0.54553   0.23915   0.47236   1.000
    O125    O    0.60803   0.22986   0.46307   1.000
    O126    O    0.75252   0.24133   0.49318   1.000
    O127    O    0.72663   0.32274   0.67547   1.000
    N128    N    0.13828   0.43435   0.29442   1.000
    O129    O    0.23601   0.39969   0.22181   1.000
    O130    O    0.02183   0.34170   0.31598   1.000
    O131    O    0.04553   0.52765   0.23899   1.000
    O132    O    0.10803   0.53694   0.22984   1.000
    O133    O    0.25252   0.50682   0.24132   1.000
    O134    O    0.03592   0.38278   0.23491   1.000
    O135    O    0.22663   0.32455   0.32272   1.000
    N136    N    0.63827   0.43435   0.29442   1.000
    O137    O    0.53593   0.38278   0.23491   1.000
    O138    O    0.52183   0.34170   0.31600   1.000
    O139    O    0.75251   0.50682   0.24117   1.000
    O140    O    0.72662   0.32455   0.32270   1.000
    O141    O    0.73600   0.39969   0.22181   1.000
    O142    O    0.54553   0.52765   0.23914   1.000
    O143    O    0.60803   0.53694   0.22984   1.000
    N144    N    0.13828   0.29444   0.56566   1.000
    O145    O    0.04554   0.23915   0.47233   1.000
    O146    O    0.10804   0.22986   0.46306   1.000
    O147    O    0.03593   0.23492   0.61723   1.000
    O148    O    0.02183   0.31601   0.65832   1.000
    O149    O    0.23601   0.22183   0.60032   1.000
    O150    O    0.22663   0.32274   0.67547   1.000
    O151    O    0.25252   0.24133   0.49319   1.000
    N152    N    0.13827   0.70558   0.43434   1.000
    O153    O    0.04553   0.76087   0.52763   1.000
    O154    O    0.10803   0.77017   0.53692   1.000
    O155    O    0.23600   0.77819   0.39969   1.000
    O156    O    0.03592   0.76510   0.38277   1.000
    O157    O    0.02183   0.68401   0.34154   1.000
    O158    O    0.25252   0.75869   0.50681   1.000
    O159    O    0.22663   0.67728   0.32454   1.000
    O160    O    0.90208   0.17823   0.80753   1.000
    O161    O    0.90207   0.80761   0.82177   1.000
    O162    O    0.65207   0.69242   0.32178   1.000
    O163    O    0.15208   0.30760   0.67822   1.000
    O164    O    0.90208   0.19241   0.17820   1.000
    O165    O    0.90207   0.82178   0.19226   1.000
    O166    O    0.40208   0.82178   0.19240   1.000
    O167    O    0.15208   0.32178   0.30758   1.000
    O168    O    0.65208   0.30760   0.67821   1.000
    O169    O    0.15208   0.69242   0.32178   1.000
    O170    O    0.65208   0.32178   0.30759   1.000
    O171    O    0.13552   0.24881   0.59022   1.000
    O172    O    0.15208   0.67824   0.69241   1.000
    O173    O    0.40208   0.19241   0.17822   1.000
    O174    O    0.65208   0.67824   0.69242   1.000
    O175    O    0.40208   0.17823   0.80760   1.000
    O176    O    0.40208   0.80761   0.82178   1.000
    O177    O    0.63551   0.40979   0.24880   1.000
    O178    O    0.88551   0.25120   0.09022   1.000
    O179    O    0.38551   0.74882   0.90978   1.000
    O180    O    0.63551   0.75121   0.40978   1.000
    O181    O    0.38551   0.90979   0.25119   1.000
    O182    O    0.38551   0.25120   0.09022   1.000
    O183    O    0.13551   0.59023   0.75120   1.000
    O184    O    0.13551   0.75121   0.40978   1.000
    O185    O    0.63551   0.59023   0.75120   1.000
    O186    O    0.88550   0.90979   0.25119   1.000
    O187    O    0.38552   0.09023   0.74882   1.000
    O188    O    0.88551   0.74882   0.90977   1.000
    O189    O    0.88551   0.09023   0.74881   1.000
    O190    O    0.63551   0.24881   0.59023   1.000
    O191    O    0.13551   0.40979   0.24880   1.000
loop_
    _geom_bond_atom_site_label_1
    _geom_bond_atom_site_label_2
    _geom_bond_distance
    _geom_bond_site_symmetry_2
    _ccdc_geom_bond_type
    N32    O33       2.84510      .   S
    Zr29   O33       4.07424      .   S
    N32    O34       2.76491      .   S
    Zr28   O34       4.03326  1_455   S
    N32    O35       2.73626  1_554   S
    Zr17   O35       3.95044      .   S
    N32    O36       2.45860  1_554   S
    Zr9    O36       3.37306      .   S
    N32    O37       2.74632  1_654   S
    Zr16   O37       3.83944      .   S
    N32    O38       2.43832      .   S
    Zr31   O38       3.81189      .   S
    N32    O39       2.39599      .   S
    Zr30   O39       3.71526  1_455   S
    N40    O41       2.39585      .   S
    Zr27   O41       3.71506      .   S
    N40    O42       2.84488      .   S
    Zr24   O42       4.07401      .   S
    N40    O43       2.76480      .   S
    Zr25   O43       4.03302      .   S
    N40    O44       2.73603  1_556   S
    Zr20   O44       3.95007      .   S
    N40    O45       2.45866  1_556   S
    Zr12   O45       3.37364      .   S
    N40    O46       2.74638  1_556   S
    Zr21   O46       3.83968      .   S
    N40    O47       2.43819      .   S
    Zr26   O47       3.81183      .   S
    N48    O49       2.76483      .   S
    Zr20   O49       4.03311  1_455   S
    N48    O50       2.84496      .   S
    Zr21   O50       4.07409      .   S
    N48    O51       2.39592      .   S
    Zr22   O51       3.71511  1_455   S
    N48    O52       2.73591  1_565   S
    Zr29   O52       3.94994      .   S
    N48    O53       2.45835  1_565   S
    Zr5    O53       3.37297      .   S
    N48    O54       2.43826      .   S
    Zr23   O54       3.81185      .   S
    N48    O55       2.74647  1_665   S
    Zr28   O55       3.83966      .   S
    N56    O57       2.84502      .   S
    Zr0    O57       4.07412      .   S
    N56    O58       2.43826      .   S
    Zr2    O58       3.81184      .   S
    N56    O59       2.73594      .   S
    Zr8    O59       3.94998      .   S
    N56    O60       2.45834      .   S
    Zr17   O60       3.37290      .   S
    N56    O61       2.39592      .   S
    Zr3    O61       3.71517      .   S
    N56    O62       2.74635      .   S
    Zr9    O62       3.83956      .   S
    N56    O63       2.76499      .   S
    Zr1    O63       4.03318      .   S
    N64    O65       2.76723      .   S
    Zr13   O65       4.03913      .   S
    N64    O66       2.84499      .   S
    Zr12   O66       4.07406      .   S
    N64    O67       2.43825      .   S
    Zr14   O67       3.81184      .   S
    N64    O68       2.74638      .   S
    Zr1    O68       3.83958      .   S
    N64    O69       2.73599      .   S
    Zr0    O69       3.95001      .   S
    N64    O70       2.45861      .   S
    Zr25   O70       3.37352      .   S
    N64    O71       2.39590      .   S
    Zr15   O71       3.71515      .   S
    N72    O73       2.76481      .   S
    Zr21   O73       4.03301      .   S
    N72    O74       2.39589      .   S
    Zr23   O74       3.71512      .   S
    N72    O75       2.74644  1_565   S
    Zr29   O75       3.83966      .   S
    N72    O76       2.84494      .   S
    Zr20   O76       4.07408      .   S
    N72    O77       2.73588  1_565   S
    Zr28   O77       3.94988      .   S
    N72    O78       2.45855  1_565   S
    Zr4    O78       3.37350      .   S
    N72    O79       2.43826      .   S
    Zr22   O79       3.81191      .   S
    N80    O81       2.74652  1_554   S
    Zr17   O81       3.84040      .   S
    N80    O82       2.39591      .   S
    Zr31   O82       3.71518      .   S
    N80    O83       2.73580  1_554   S
    Zr16   O83       3.94981      .   S
    N80    O84       2.45842  1_554   S
    Zr8    O84       3.37333      .   S
    N80    O85       2.84501      .   S
    Zr28   O85       4.07407      .   S
    N80    O86       2.76497      .   S
    Zr29   O86       4.03315      .   S
    N80    O87       2.43827      .   S
    Zr30   O87       3.81185      .   S
    N88    O89       2.84512      .   S
    Zr1    O89       4.07426  1_655   S
    N88    O90       2.43834      .   S
    Zr3    O90       3.81194  1_655   S
    N88    O91       2.39596      .   S
    Zr2    O91       3.71521      .   S
    N88    O92       2.74639      .   S
    Zr8    O92       3.83962      .   S
    N88    O93       2.76499      .   S
    Zr0    O93       4.03320      .   S
    N88    O94       2.73598      .   S
    Zr9    O94       3.95013  1_655   S
    N88    O95       2.45858      .   S
    Zr16   O95       3.37358      .   S
    N96    O97       2.73587  1_545   S
    Zr24   O97       3.94998      .   S
    N96    O98       2.45842  1_545   S
    Zr0    O98       3.37337      .   S
    N96    O99       2.39590      .   S
    Zr19   O99       3.71516      .   S
    N96    O100      2.76488      .   S
    Zr17   O100      4.03299      .   S
    N96    O101      2.43824      .   S
    Zr18   O101      3.81182      .   S
    N96    O102      2.84499      .   S
    Zr16   O102      4.07414      .   S
    N96    O103      2.74622  1_545   S
    Zr25   O103      3.83942      .   S
    N104   O105      2.73613  1_556   S
    Zr21   O105      3.95015      .   S
    N104   O106      2.45634  1_556   S
    Zr13   O106      3.36605      .   S
    N104   O107      2.43815      .   S
    Zr27   O107      3.81178      .   S
    N104   O108      2.74651  1_656   S
    Zr20   O108      3.83981      .   S
    N104   O109      2.76472      .   S
    Zr24   O109      4.03302  1_455   S
    N104   O110      2.84482      .   S
    Zr25   O110      4.07394      .   S
    N104   O111      2.39587      .   S
    Zr26   O111      3.71504  1_455   S
    N112   O113      2.73583  1_545   S
    Zr25   O113      3.94994      .   S
    N112   O114      2.45837  1_545   S
    Zr1    O114      3.37331      .   S
    N112   O115      2.43816      .   S
    Zr19   O115      3.81175      .   S
    N112   O116      2.76452      .   S
    Zr16   O116      4.03366  1_455   S
    N112   O117      2.39586      .   S
    Zr18   O117      3.71511  1_455   S
    N112   O118      2.74622  1_645   S
    Zr24   O118      3.83942      .   S
    N112   O119      2.84498      .   S
    Zr17   O119      4.07395      .   S
    N120   O121      2.39593      .   S
    Zr11   O121      3.71517      .   S
    N120   O122      2.84507      .   S
    Zr8    O122      4.07421      .   S
    N120   O123      2.43830      .   S
    Zr10   O123      3.81187      .   S
    N120   O124      2.73595      .   S
    Zr4    O124      3.94998      .   S
    N120   O125      2.45854      .   S
    Zr29   O125      3.37342      .   S
    N120   O126      2.74652      .   S
    Zr5    O126      3.84035      .   S
    N120   O127      2.76503      .   S
    Zr9    O127      4.03321      .   S
    N128   O129      2.39582      .   S
    Zr6    O129      3.71508      .   S
    N128   O130      2.84509      .   S
    Zr5    O130      4.07412  1_655   S
    N128   O131      2.73705      .   S
    Zr13   O131      3.95243  1_655   S
    N128   O132      2.45845      .   S
    Zr20   O132      3.37339      .   S
    N128   O133      2.74631      .   S
    Zr12   O133      3.83952      .   S
    N128   O134      2.43828      .   S
    Zr7    O134      3.81186  1_655   S
    N128   O135      2.76502      .   S
    Zr4    O135      4.03319      .   S
    N136   O137      2.43820      .   S
    Zr6    O137      3.81179      .   S
    N136   O138      2.84506      .   S
    Zr4    O138      4.07422      .   S
    N136   O139      2.74743      .   S
    Zr13   O139      3.84212      .   S
    N136   O140      2.76494      .   S
    Zr5    O140      4.03302      .   S
    N136   O141      2.39580      .   S
    Zr7    O141      3.71505      .   S
    N136   O142      2.73584      .   S
    Zr12   O142      3.94987      .   S
    N136   O143      2.45846      .   S
    Zr21   O143      3.37340      .   S
    N144   O145      2.73631      .   S
    Zr5    O145      3.95060  1_655   S
    N144   O146      2.45870      .   S
    Zr28   O146      3.37334      .   S
    N144   O147      2.43841      .   S
    Zr11   O147      3.81201  1_655   S
    N144   O148      2.84519      .   S
    Zr9    O148      4.07434  1_655   S
    N144   O149      2.39596      .   S
    Zr10   O149      3.71525      .   S
    N144   O150      2.76509      .   S
    Zr8    O150      4.03329      .   S
    N144   O151      2.74635      .   S
    Zr4    O151      3.83958      .   S
    N152   O153      2.73577      .   S
    Zr1    O153      3.95026  1_655   S
    N152   O154      2.45834      .   S
    Zr24   O154      3.37380      .   S
    N152   O155      2.39594      .   S
    Zr14   O155      3.71518      .   S
    N152   O156      2.43832      .   S
    Zr15   O156      3.81192  1_655   S
    N152   O157      2.84697      .   S
    Zr13   O157      4.08090  1_655   S
    N152   O158      2.74643      .   S
    Zr0    O158      3.83971      .   S
    N152   O159      2.76489      .   S
    Zr12   O159      4.03309      .   S
    Zr9    O160      3.46508      .   S
    N112   O160      2.25317      .   S
    Zr1    O161      3.46474      .   S
    N104   O161      2.25296      .   S
    Zr21   O162      3.46491      .   S
    N64    O162      2.25323      .   S
    Zr16   O163      3.46540      .   S
    N144   O163      2.25324      .   S
    Zr5    O164      3.46400      .   S
    N32    O164      2.25292      .   S
    Zr13   O165      3.46528      .   S
    N48    O165      2.25349      .   S
    Zr12   O166      3.46489      .   S
    N72    O166      2.25315      .   S
    Zr28   O167      3.46505      .   S
    N128   O167      2.25335      .   S
    Zr17   O168      3.46382      .   S
    N120   O168      2.25295      .   S
    Zr20   O169      3.46494      .   S
    N152   O169      2.25323      .   S
    Zr29   O170      3.46506      .   S
    N136   O170      2.25335      .   S
    Zr18   O171      1.42026      .   S
    N144   O171      1.02499      .   S
    Zr24   O172      3.46505      .   S
    N88    O172      2.25333      .   S
    Zr4    O173      3.46493      .   S
    N80    O173      2.25326      .   S
    Zr25   O174      3.46505      .   S
    N56    O174      2.25333      .   S
    Zr8    O175      3.46499      .   S
    N96    O175      2.25329      .   S
    Zr0    O176      3.46471      .   S
    N40    O176      2.25304      .   S
    N136   O177      1.02484      .   S
    Zr31   O177      1.41999      .   S
    N32    O178      1.02502      .   S
    Zr7    O178      1.42018      .   S
    N40    O179      1.02490      .   S
    Zr2    O179      1.42004      .   S
    N64    O180      1.02497      .   S
    Zr23   O180      1.42014      .   S
    N72    O181      1.02498      .   S
    Zr14   O181      1.42012      .   S
    N80    O182      1.02499      .   S
    Zr6    O182      1.42015      .   S
    N88    O183      1.02501      .   S
    Zr26   O183      1.42016      .   S
    N152   O184      1.02497      .   S
    Zr22   O184      1.42014      .   S
    N56    O185      1.02499      .   S
    Zr27   O185      1.42014      .   S
    N48    O186      1.02495      .   S
    Zr15   O186      1.42009      .   S
    N96    O187      1.02497      .   S
    Zr10   O187      1.42010      .   S
    N104   O188      1.02484      .   S
    Zr3    O188      1.42000      .   S
    N112   O189      1.02479      .   S
    Zr11   O189      1.41993      .   S
    N120   O190      1.02502      .   S
    Zr19   O190      1.42019      .   S
    N128   O191      1.02484      .   S
    Zr30   O191      1.41999      .   S
