# CIF file generated by openbabel 2.4.90, see http://openbabel.sf.net
data_I
_chemical_name_common ''
_cell_length_a 18.343
_cell_length_b 19.757
_cell_length_c 19.757
_cell_angle_alpha 90
_cell_angle_beta 90
_cell_angle_gamma 89.999
_space_group_name_H-M_alt 'P 1'
_space_group_name_Hall 'P 1'
loop_
    _symmetry_equiv_pos_as_xyz
    x,y,z
loop_
    _atom_site_label
    _atom_site_type_symbol
    _atom_site_fract_x
    _atom_site_fract_y
    _atom_site_fract_z
    _atom_site_occupancy
    C0      C    0.38345   0.81542   0.64744   1.000
    C1      C    0.88344   0.81542   0.64743   1.000
    C2      C    0.38264   0.68535   0.87615   1.000
    C3      C    0.88264   0.68535   0.87615   1.000
    C4      C    0.38345   0.18460   0.35257   1.000
    C5      C    0.88344   0.18460   0.35250   1.000
    C6      C    0.38264   0.31467   0.12386   1.000
    C7      C    0.88264   0.31467   0.12386   1.000
    C8      C    0.38345   0.35258   0.81542   1.000
    C9      C    0.88344   0.35258   0.81542   1.000
    C10     C    0.38265   0.12386   0.68535   1.000
    C11     C    0.88264   0.12386   0.68535   1.000
    C12     C    0.38344   0.64744   0.18460   1.000
    C13     C    0.88344   0.64744   0.18400   1.000
    C14     C    0.38264   0.87616   0.31466   1.000
    C15     C    0.88263   0.87616   0.31466   1.000
    C16     C    0.13345   0.31541   0.85259   1.000
    C17     C    0.63345   0.31541   0.85250   1.000
    C18     C    0.13265   0.18534   0.62387   1.000
    C19     C    0.63264   0.18534   0.62387   1.000
    C20     C    0.13345   0.68461   0.14743   1.000
    C21     C    0.63344   0.68461   0.14743   1.000
    C22     C    0.13264   0.81468   0.37614   1.000
    C23     C    0.63264   0.81468   0.37614   1.000
    C24     C    0.13345   0.85259   0.68460   1.000
    C25     C    0.63344   0.85259   0.68460   1.000
    C26     C    0.13264   0.62387   0.81467   1.000
    C27     C    0.63264   0.62387   0.81467   1.000
    C28     C    0.13345   0.14743   0.31540   1.000
    C29     C    0.63344   0.14743   0.31541   1.000
    C30     C    0.13265   0.37615   0.18534   1.000
    C31     C    0.63264   0.37615   0.18534   1.000
    C32     C    0.33185   0.88389   0.00697   1.000
    C33     C    0.83184   0.88389   0.00697   1.000
    C34     C    0.37889   0.80953   0.03150   1.000
    C35     C    0.87889   0.80953   0.03150   1.000
    C36     C    0.23642   0.79318   0.03740   1.000
    C37     C    0.73641   0.79318   0.03740   1.000
    C38     C    0.21620   0.73311   0.97397   1.000
    C39     C    0.71620   0.73311   0.97397   1.000
    C40     C    0.22240   0.86561   0.92957   1.000
    C41     C    0.72240   0.86561   0.92957   1.000
    C42     C    0.29823   0.86654   0.87392   1.000
    C43     C    0.79823   0.86653   0.87392   1.000
    C44     C    0.45665   0.89725   0.97257   1.000
    C45     C    0.95665   0.89725   0.97257   1.000
    C46     C    0.40440   0.88462   0.89842   1.000
    C47     C    0.90439   0.88462   0.89842   1.000
    C48     C    0.05406   0.78362   0.85246   1.000
    C49     C    0.55405   0.78362   0.85246   1.000
    C50     C    0.04016   0.87007   0.86784   1.000
    C51     C    0.54015   0.87007   0.86784   1.000
    C52     C    0.98728   0.77542   0.02443   1.000
    C53     C    0.48728   0.77543   0.02443   1.000
    C54     C    0.06298   0.81624   0.98696   1.000
    C55     C    0.56297   0.81624   0.98696   1.000
    C56     C    0.33186   0.11613   0.99304   1.000
    C57     C    0.83186   0.11613   0.99304   1.000
    C58     C    0.37890   0.19049   0.96844   1.000
    C59     C    0.87889   0.19049   0.96844   1.000
    C60     C    0.23643   0.20684   0.96254   1.000
    C61     C    0.73642   0.20684   0.96254   1.000
    C62     C    0.21620   0.26691   0.02605   1.000
    C63     C    0.71620   0.26691   0.02604   1.000
    C64     C    0.22241   0.13441   0.07044   1.000
    C65     C    0.72240   0.13441   0.07040   1.000
    C66     C    0.29824   0.13349   0.12609   1.000
    C67     C    0.79823   0.13349   0.12609   1.000
    C68     C    0.45666   0.10277   0.02744   1.000
    C69     C    0.95665   0.10277   0.02744   1.000
    C70     C    0.40440   0.11540   0.10159   1.000
    C71     C    0.90439   0.11540   0.10159   1.000
    C72     C    0.05406   0.21640   0.14754   1.000
    C73     C    0.55405   0.21640   0.14750   1.000
    C74     C    0.04016   0.12995   0.13217   1.000
    C75     C    0.54016   0.12995   0.13217   1.000
    C76     C    0.98729   0.22460   0.97558   1.000
    C77     C    0.48729   0.22460   0.97558   1.000
    C78     C    0.06298   0.18378   0.01305   1.000
    C79     C    0.56297   0.18378   0.01305   1.000
    C80     C    0.33186   0.99305   0.88389   1.000
    C81     C    0.83185   0.99305   0.88389   1.000
    C82     C    0.37890   0.96844   0.80953   1.000
    C83     C    0.87889   0.96844   0.80950   1.000
    C84     C    0.23642   0.96254   0.79317   1.000
    C85     C    0.73641   0.96254   0.79318   1.000
    C86     C    0.21620   0.02605   0.73311   1.000
    C87     C    0.71620   0.02605   0.73310   1.000
    C88     C    0.22241   0.07045   0.86560   1.000
    C89     C    0.72241   0.07045   0.86560   1.000
    C90     C    0.29824   0.12609   0.86653   1.000
    C91     C    0.79823   0.12609   0.86653   1.000
    C92     C    0.45666   0.02744   0.89725   1.000
    C93     C    0.95665   0.02744   0.89725   1.000
    C94     C    0.40440   0.10160   0.88462   1.000
    C95     C    0.90440   0.10159   0.88462   1.000
    C96     C    0.05407   0.14755   0.78362   1.000
    C97     C    0.55405   0.14755   0.78362   1.000
    C98     C    0.04016   0.13218   0.87006   1.000
    C99     C    0.54016   0.13217   0.87006   1.000
    C100    C    0.98729   0.97558   0.77542   1.000
    C101    C    0.48728   0.97558   0.77542   1.000
    C102    C    0.06299   0.01306   0.81623   1.000
    C103    C    0.56298   0.01306   0.81623   1.000
    C104    C    0.33186   0.00698   0.11610   1.000
    C105    C    0.83185   0.00698   0.11612   1.000
    C106    C    0.37890   0.03158   0.19040   1.000
    C107    C    0.87889   0.03158   0.19040   1.000
    C108    C    0.23643   0.03748   0.20684   1.000
    C109    C    0.73642   0.03748   0.20684   1.000
    C110    C    0.21619   0.97397   0.26691   1.000
    C111    C    0.71619   0.97397   0.26691   1.000
    C112    C    0.22240   0.92957   0.13441   1.000
    C113    C    0.72239   0.92958   0.13441   1.000
    C114    C    0.29823   0.87393   0.13348   1.000
    C115    C    0.79822   0.87393   0.13348   1.000
    C116    C    0.45665   0.97258   0.10276   1.000
    C117    C    0.95664   0.97258   0.10276   1.000
    C118    C    0.40439   0.89843   0.11539   1.000
    C119    C    0.90439   0.89843   0.11539   1.000
    C120    C    0.05405   0.85247   0.21639   1.000
    C121    C    0.55405   0.85247   0.21639   1.000
    C122    C    0.04016   0.86785   0.12995   1.000
    C123    C    0.54015   0.86785   0.12995   1.000
    C124    C    0.98729   0.02444   0.22459   1.000
    C125    C    0.48728   0.02444   0.22459   1.000
    C126    C    0.06297   0.98696   0.18378   1.000
    C127    C    0.56296   0.98696   0.18378   1.000
    C128    C    0.08186   0.38388   0.49303   1.000
    C129    C    0.58185   0.38388   0.49303   1.000
    C130    C    0.12890   0.30952   0.46843   1.000
    C131    C    0.62890   0.30952   0.46843   1.000
    C132    C    0.48642   0.29317   0.46253   1.000
    C133    C    0.98642   0.29317   0.46253   1.000
    C134    C    0.46620   0.23310   0.52600   1.000
    C135    C    0.96619   0.23310   0.52605   1.000
    C136    C    0.47240   0.36560   0.57045   1.000
    C137    C    0.97240   0.36560   0.57045   1.000
    C138    C    0.04824   0.36653   0.62610   1.000
    C139    C    0.54823   0.36652   0.62610   1.000
    C140    C    0.20666   0.39724   0.52745   1.000
    C141    C    0.70665   0.39724   0.52745   1.000
    C142    C    0.15440   0.38461   0.60160   1.000
    C143    C    0.65440   0.38461   0.60160   1.000
    C144    C    0.30406   0.28361   0.64750   1.000
    C145    C    0.80405   0.28361   0.64755   1.000
    C146    C    0.29016   0.37006   0.63218   1.000
    C147    C    0.79015   0.37006   0.63218   1.000
    C148    C    0.23729   0.27542   0.47557   1.000
    C149    C    0.73728   0.27541   0.47557   1.000
    C150    C    0.31298   0.31623   0.51306   1.000
    C151    C    0.81297   0.31623   0.51306   1.000
    C152    C    0.08186   0.61614   0.50698   1.000
    C153    C    0.58185   0.61614   0.50698   1.000
    C154    C    0.12890   0.69050   0.53150   1.000
    C155    C    0.62889   0.69050   0.53150   1.000
    C156    C    0.48642   0.70685   0.53740   1.000
    C157    C    0.98641   0.70685   0.53748   1.000
    C158    C    0.46619   0.76692   0.47396   1.000
    C159    C    0.96620   0.76693   0.47396   1.000
    C160    C    0.47240   0.63442   0.42956   1.000
    C161    C    0.97239   0.63442   0.42956   1.000
    C162    C    0.04823   0.63350   0.37391   1.000
    C163    C    0.54823   0.63350   0.37391   1.000
    C164    C    0.20666   0.60278   0.47256   1.000
    C165    C    0.70665   0.60278   0.47256   1.000
    C166    C    0.15440   0.61541   0.39841   1.000
    C167    C    0.65440   0.61541   0.39841   1.000
    C168    C    0.30406   0.71641   0.35246   1.000
    C169    C    0.80405   0.71641   0.35245   1.000
    C170    C    0.29015   0.62996   0.36780   1.000
    C171    C    0.79015   0.62996   0.36783   1.000
    C172    C    0.23728   0.72461   0.52444   1.000
    C173    C    0.73728   0.72461   0.52444   1.000
    C174    C    0.31297   0.68379   0.48695   1.000
    C175    C    0.81297   0.68379   0.48695   1.000
    C176    C    0.08186   0.49304   0.61610   1.000
    C177    C    0.58185   0.49304   0.61610   1.000
    C178    C    0.12890   0.46843   0.69050   1.000
    C179    C    0.62889   0.46843   0.69050   1.000
    C180    C    0.48642   0.46253   0.70685   1.000
    C181    C    0.98641   0.46253   0.70684   1.000
    C182    C    0.46620   0.52606   0.76692   1.000
    C183    C    0.96620   0.52605   0.76692   1.000
    C184    C    0.47240   0.57046   0.63442   1.000
    C185    C    0.97239   0.57046   0.63442   1.000
    C186    C    0.04824   0.62610   0.63349   1.000
    C187    C    0.54823   0.62610   0.63349   1.000
    C188    C    0.20666   0.52745   0.60277   1.000
    C189    C    0.70665   0.52745   0.60277   1.000
    C190    C    0.15440   0.60160   0.61540   1.000
    C191    C    0.65440   0.60161   0.61540   1.000
    C192    C    0.30406   0.64755   0.71640   1.000
    C193    C    0.80405   0.64756   0.71640   1.000
    C194    C    0.29015   0.63219   0.62996   1.000
    C195    C    0.79015   0.63219   0.62996   1.000
    C196    C    0.23728   0.47557   0.72460   1.000
    C197    C    0.73728   0.47557   0.72460   1.000
    C198    C    0.31298   0.51307   0.68379   1.000
    C199    C    0.81297   0.51307   0.68379   1.000
    C200    C    0.08186   0.50699   0.38388   1.000
    C201    C    0.58185   0.50699   0.38388   1.000
    C202    C    0.12890   0.53159   0.30950   1.000
    C203    C    0.62889   0.53159   0.30950   1.000
    C204    C    0.48642   0.53749   0.29316   1.000
    C205    C    0.98641   0.53749   0.29316   1.000
    C206    C    0.46620   0.47396   0.23300   1.000
    C207    C    0.96619   0.47396   0.23300   1.000
    C208    C    0.47240   0.42956   0.36559   1.000
    C209    C    0.97240   0.42956   0.36559   1.000
    C210    C    0.04824   0.37392   0.36652   1.000
    C211    C    0.54823   0.37392   0.36652   1.000
    C212    C    0.20666   0.47257   0.39724   1.000
    C213    C    0.70665   0.47257   0.39724   1.000
    C214    C    0.15440   0.39842   0.38461   1.000
    C215    C    0.65440   0.39842   0.38461   1.000
    C216    C    0.30405   0.35246   0.28361   1.000
    C217    C    0.80405   0.35246   0.28361   1.000
    C218    C    0.29016   0.36784   0.37005   1.000
    C219    C    0.79015   0.36784   0.37005   1.000
    C220    C    0.23728   0.52445   0.27541   1.000
    C221    C    0.73728   0.52445   0.27541   1.000
    C222    C    0.31297   0.48695   0.31622   1.000
    C223    C    0.81297   0.48695   0.31622   1.000
    C224    C    0.35939   0.83783   0.98729   1.000
    C225    C    0.85938   0.83784   0.98729   1.000
    C226    C    0.26151   0.75811   0.00000   1.000
    C227    C    0.76150   0.75812   0.00000   1.000
    C228    C    0.30223   0.70289   0.03949   1.000
    C229    C    0.80222   0.70290   0.03900   1.000
    C230    C    0.26259   0.83290   0.90320   1.000
    C231    C    0.76258   0.83290   0.90320   1.000
    C232    C    0.22143   0.79041   0.85050   1.000
    C233    C    0.72143   0.79041   0.85058   1.000
    C234    C    0.42416   0.85919   0.94424   1.000
    C235    C    0.92415   0.85919   0.94424   1.000
    C236    C    0.01121   0.82123   0.86167   1.000
    C237    C    0.51121   0.82123   0.86167   1.000
    C238    C    0.46535   0.82467   0.79698   1.000
    C239    C    0.96535   0.82467   0.79698   1.000
    C240    C    0.01862   0.77932   0.97720   1.000
    C241    C    0.51861   0.77932   0.97720   1.000
    C242    C    0.05392   0.70937   0.96704   1.000
    C243    C    0.55391   0.70937   0.96704   1.000
    C244    C    0.35939   0.16219   0.01273   1.000
    C245    C    0.85939   0.16219   0.01270   1.000
    C246    C    0.26151   0.24191   0.99961   1.000
    C247    C    0.76150   0.24191   0.99961   1.000
    C248    C    0.30224   0.29713   0.96052   1.000
    C249    C    0.80223   0.29713   0.96052   1.000
    C250    C    0.26259   0.16712   0.09673   1.000
    C251    C    0.76258   0.16712   0.09673   1.000
    C252    C    0.22143   0.20961   0.14944   1.000
    C253    C    0.72143   0.20961   0.14944   1.000
    C254    C    0.42416   0.14083   0.05577   1.000
    C255    C    0.92415   0.14083   0.05577   1.000
    C256    C    0.01121   0.17880   0.13830   1.000
    C257    C    0.51121   0.17880   0.13834   1.000
    C258    C    0.46536   0.17535   0.20303   1.000
    C259    C    0.96535   0.17535   0.20303   1.000
    C260    C    0.01862   0.22070   0.02280   1.000
    C261    C    0.51861   0.22071   0.02281   1.000
    C262    C    0.05392   0.29065   0.03297   1.000
    C263    C    0.55391   0.29065   0.03297   1.000
    C264    C    0.35940   0.01273   0.83783   1.000
    C265    C    0.85939   0.01273   0.83783   1.000
    C266    C    0.26151   0.99961   0.75811   1.000
    C267    C    0.76151   0.99961   0.75811   1.000
    C268    C    0.30223   0.96052   0.70289   1.000
    C269    C    0.80223   0.96052   0.70289   1.000
    C270    C    0.26259   0.09673   0.83290   1.000
    C271    C    0.76259   0.09673   0.83290   1.000
    C272    C    0.22144   0.14944   0.79041   1.000
    C273    C    0.72143   0.14944   0.79040   1.000
    C274    C    0.42416   0.05578   0.85919   1.000
    C275    C    0.92416   0.05578   0.85910   1.000
    C276    C    0.01122   0.13835   0.82122   1.000
    C277    C    0.51121   0.13835   0.82122   1.000
    C278    C    0.46536   0.20303   0.82467   1.000
    C279    C    0.96535   0.20304   0.82466   1.000
    C280    C    0.01862   0.02281   0.77931   1.000
    C281    C    0.51862   0.02281   0.77931   1.000
    C282    C    0.05392   0.03298   0.70930   1.000
    C283    C    0.55392   0.03298   0.70930   1.000
    C284    C    0.35938   0.98729   0.16218   1.000
    C285    C    0.85937   0.98729   0.16218   1.000
    C286    C    0.26150   0.00000   0.24190   1.000
    C287    C    0.76150   0.00000   0.24190   1.000
    C288    C    0.30224   0.03950   0.29712   1.000
    C289    C    0.80223   0.03950   0.29712   1.000
    C290    C    0.26258   0.90329   0.16710   1.000
    C291    C    0.76257   0.90329   0.16711   1.000
    C292    C    0.22143   0.85058   0.20961   1.000
    C293    C    0.72142   0.85058   0.20961   1.000
    C294    C    0.42415   0.94424   0.14080   1.000
    C295    C    0.92414   0.94425   0.14080   1.000
    C296    C    0.01121   0.86167   0.17879   1.000
    C297    C    0.51120   0.86167   0.17879   1.000
    C298    C    0.46535   0.79699   0.17530   1.000
    C299    C    0.96534   0.79699   0.17534   1.000
    C300    C    0.01861   0.97721   0.22070   1.000
    C301    C    0.51860   0.97721   0.22070   1.000
    C302    C    0.05391   0.96705   0.29065   1.000
    C303    C    0.55391   0.96704   0.29060   1.000
    C304    C    0.10939   0.33783   0.51274   1.000
    C305    C    0.60939   0.33783   0.51274   1.000
    C306    C    0.01151   0.25811   0.49962   1.000
    C307    C    0.51151   0.25810   0.49962   1.000
    C308    C    0.05224   0.20288   0.46051   1.000
    C309    C    0.55223   0.20288   0.46051   1.000
    C310    C    0.01259   0.33289   0.59674   1.000
    C311    C    0.51259   0.33289   0.59674   1.000
    C312    C    0.47143   0.29040   0.64945   1.000
    C313    C    0.97143   0.29040   0.64945   1.000
    C314    C    0.17416   0.35918   0.55578   1.000
    C315    C    0.67416   0.35918   0.55578   1.000
    C316    C    0.26121   0.32121   0.63835   1.000
    C317    C    0.76121   0.32121   0.63830   1.000
    C318    C    0.21536   0.32466   0.70304   1.000
    C319    C    0.71535   0.32466   0.70304   1.000
    C320    C    0.26861   0.27931   0.52280   1.000
    C321    C    0.76861   0.27931   0.52282   1.000
    C322    C    0.30392   0.20936   0.53298   1.000
    C323    C    0.80391   0.20936   0.53298   1.000
    C324    C    0.10939   0.66219   0.48728   1.000
    C325    C    0.60939   0.66220   0.48720   1.000
    C326    C    0.01151   0.74191   0.50040   1.000
    C327    C    0.51150   0.74192   0.50039   1.000
    C328    C    0.05224   0.79713   0.53951   1.000
    C329    C    0.55223   0.79714   0.53950   1.000
    C330    C    0.01259   0.66713   0.40327   1.000
    C331    C    0.51258   0.66713   0.40327   1.000
    C332    C    0.47143   0.70962   0.35057   1.000
    C333    C    0.97142   0.70962   0.35056   1.000
    C334    C    0.17416   0.64084   0.44423   1.000
    C335    C    0.67415   0.64084   0.44423   1.000
    C336    C    0.26121   0.67881   0.36160   1.000
    C337    C    0.76120   0.67881   0.36166   1.000
    C338    C    0.21536   0.67537   0.29697   1.000
    C339    C    0.71535   0.67536   0.29697   1.000
    C340    C    0.26861   0.72071   0.47720   1.000
    C341    C    0.76861   0.72072   0.47719   1.000
    C342    C    0.30391   0.79066   0.46703   1.000
    C343    C    0.80391   0.79066   0.46703   1.000
    C344    C    0.10940   0.51274   0.66219   1.000
    C345    C    0.60939   0.51274   0.66219   1.000
    C346    C    0.01152   0.49962   0.74191   1.000
    C347    C    0.51151   0.49962   0.74191   1.000
    C348    C    0.05224   0.46051   0.79713   1.000
    C349    C    0.55223   0.46051   0.79713   1.000
    C350    C    0.01259   0.59674   0.66713   1.000
    C351    C    0.51258   0.59674   0.66713   1.000
    C352    C    0.47143   0.64945   0.70962   1.000
    C353    C    0.97142   0.64945   0.70962   1.000
    C354    C    0.17416   0.55579   0.64084   1.000
    C355    C    0.67416   0.55579   0.64084   1.000
    C356    C    0.26121   0.63836   0.67880   1.000
    C357    C    0.76120   0.63836   0.67880   1.000
    C358    C    0.21536   0.70305   0.67536   1.000
    C359    C    0.71535   0.70305   0.67536   1.000
    C360    C    0.26861   0.52282   0.72071   1.000
    C361    C    0.76861   0.52282   0.72071   1.000
    C362    C    0.30392   0.53299   0.79060   1.000
    C363    C    0.80391   0.53299   0.79066   1.000
    C364    C    0.10939   0.48728   0.33782   1.000
    C365    C    0.60938   0.48728   0.33782   1.000
    C366    C    0.01151   0.50040   0.25810   1.000
    C367    C    0.51150   0.50040   0.25810   1.000
    C368    C    0.05224   0.53951   0.20288   1.000
    C369    C    0.55223   0.53951   0.20288   1.000
    C370    C    0.01259   0.40328   0.33289   1.000
    C371    C    0.51258   0.40328   0.33289   1.000
    C372    C    0.47143   0.35057   0.29000   1.000
    C373    C    0.97142   0.35057   0.29000   1.000
    C374    C    0.17416   0.44424   0.35918   1.000
    C375    C    0.67415   0.44424   0.35918   1.000
    C376    C    0.26121   0.36166   0.32121   1.000
    C377    C    0.76120   0.36166   0.32121   1.000
    C378    C    0.21536   0.29698   0.32466   1.000
    C379    C    0.71535   0.29698   0.32465   1.000
    C380    C    0.26861   0.47720   0.27930   1.000
    C381    C    0.76861   0.47720   0.27930   1.000
    C382    C    0.30391   0.46704   0.20930   1.000
    C383    C    0.80391   0.46704   0.20930   1.000
    C384    C    0.30726   0.79404   0.95115   1.000
    C385    C    0.80725   0.79404   0.95115   1.000
    C386    C    0.47013   0.80207   0.92241   1.000
    C387    C    0.97012   0.80207   0.92241   1.000
    C388    C    0.30726   0.20598   0.04886   1.000
    C389    C    0.80725   0.20598   0.04886   1.000
    C390    C    0.47013   0.19795   0.07760   1.000
    C391    C    0.97013   0.19796   0.07760   1.000
    C392    C    0.30726   0.04887   0.79404   1.000
    C393    C    0.80726   0.04887   0.79404   1.000
    C394    C    0.47014   0.07761   0.80206   1.000
    C395    C    0.97013   0.07761   0.80206   1.000
    C396    C    0.30725   0.95115   0.20597   1.000
    C397    C    0.80724   0.95115   0.20597   1.000
    C398    C    0.47013   0.92241   0.19795   1.000
    C399    C    0.97012   0.92241   0.19795   1.000
    C400    C    0.05726   0.29403   0.54880   1.000
    C401    C    0.55726   0.29403   0.54887   1.000
    C402    C    0.22014   0.30206   0.57761   1.000
    C403    C    0.72013   0.30206   0.57761   1.000
    C404    C    0.05726   0.70598   0.45114   1.000
    C405    C    0.55725   0.70599   0.45114   1.000
    C406    C    0.22013   0.69797   0.42240   1.000
    C407    C    0.72013   0.69796   0.42240   1.000
    C408    C    0.05726   0.54888   0.70598   1.000
    C409    C    0.55726   0.54888   0.70598   1.000
    C410    C    0.22013   0.57762   0.69796   1.000
    C411    C    0.72013   0.57762   0.69796   1.000
    C412    C    0.05726   0.45114   0.29403   1.000
    C413    C    0.55725   0.45114   0.29403   1.000
    C414    C    0.22013   0.42240   0.30205   1.000
    C415    C    0.72013   0.42240   0.30205   1.000
    C416    C    0.36193   0.67989   0.01690   1.000
    C417    C    0.86192   0.67989   0.01690   1.000
    C418    C    0.27214   0.68313   0.09446   1.000
    C419    C    0.77213   0.68313   0.09446   1.000
    C420    C    0.23452   0.72694   0.84776   1.000
    C421    C    0.73451   0.72694   0.84776   1.000
    C422    C    0.17734   0.82261   0.81350   1.000
    C423    C    0.67733   0.82261   0.81350   1.000
    C424    C    0.40013   0.80274   0.79714   1.000
    C425    C    0.90012   0.80274   0.79714   1.000
    C426    C    0.49652   0.84949   0.74489   1.000
    C427    C    0.99651   0.84949   0.74489   1.000
    C428    C    0.10008   0.69185   0.01113   1.000
    C429    C    0.60007   0.69185   0.01113   1.000
    C430    C    0.03484   0.67457   0.91542   1.000
    C431    C    0.53483   0.67457   0.91542   1.000
    C432    C    0.36194   0.32012   0.98311   1.000
    C433    C    0.86193   0.32013   0.98311   1.000
    C434    C    0.27215   0.31689   0.90555   1.000
    C435    C    0.77214   0.31690   0.90550   1.000
    C436    C    0.23452   0.27308   0.15225   1.000
    C437    C    0.73451   0.27308   0.15225   1.000
    C438    C    0.17734   0.17741   0.18651   1.000
    C439    C    0.67733   0.17741   0.18651   1.000
    C440    C    0.40013   0.19728   0.20287   1.000
    C441    C    0.90012   0.19728   0.20287   1.000
    C442    C    0.49652   0.15053   0.25512   1.000
    C443    C    0.99651   0.15052   0.25510   1.000
    C444    C    0.10009   0.30817   0.98888   1.000
    C445    C    0.60008   0.30817   0.98888   1.000
    C446    C    0.03484   0.32545   0.08459   1.000
    C447    C    0.53483   0.32545   0.08459   1.000
    C448    C    0.36194   0.98311   0.67989   1.000
    C449    C    0.86192   0.98312   0.67989   1.000
    C450    C    0.27214   0.90556   0.68313   1.000
    C451    C    0.77213   0.90556   0.68312   1.000
    C452    C    0.23452   0.15226   0.72694   1.000
    C453    C    0.73452   0.15225   0.72694   1.000
    C454    C    0.17734   0.18651   0.82260   1.000
    C455    C    0.67734   0.18651   0.82260   1.000
    C456    C    0.40014   0.20288   0.80273   1.000
    C457    C    0.90012   0.20288   0.80274   1.000
    C458    C    0.49652   0.25512   0.84948   1.000
    C459    C    0.99651   0.25512   0.84900   1.000
    C460    C    0.10008   0.98889   0.69185   1.000
    C461    C    0.60007   0.98888   0.69185   1.000
    C462    C    0.03484   0.08460   0.67457   1.000
    C463    C    0.53483   0.08459   0.67457   1.000
    C464    C    0.36194   0.01691   0.32012   1.000
    C465    C    0.86193   0.01691   0.32012   1.000
    C466    C    0.27214   0.09446   0.31689   1.000
    C467    C    0.77214   0.09446   0.31689   1.000
    C468    C    0.23451   0.84777   0.27307   1.000
    C469    C    0.73451   0.84777   0.27307   1.000
    C470    C    0.17733   0.81351   0.17741   1.000
    C471    C    0.67733   0.81351   0.17741   1.000
    C472    C    0.40013   0.79714   0.19728   1.000
    C473    C    0.90012   0.79714   0.19728   1.000
    C474    C    0.49651   0.74490   0.15052   1.000
    C475    C    0.99651   0.74490   0.15052   1.000
    C476    C    0.10009   0.01114   0.30816   1.000
    C477    C    0.60008   0.01114   0.30816   1.000
    C478    C    0.03483   0.91543   0.32544   1.000
    C479    C    0.53482   0.91543   0.32544   1.000
    C480    C    0.11194   0.17988   0.48310   1.000
    C481    C    0.61194   0.17989   0.48310   1.000
    C482    C    0.02215   0.18312   0.40550   1.000
    C483    C    0.52214   0.18312   0.40554   1.000
    C484    C    0.48452   0.22693   0.65226   1.000
    C485    C    0.98451   0.22693   0.65226   1.000
    C486    C    0.42734   0.32260   0.68652   1.000
    C487    C    0.92733   0.32260   0.68652   1.000
    C488    C    0.15014   0.30273   0.70280   1.000
    C489    C    0.65013   0.30273   0.70288   1.000
    C490    C    0.24652   0.34948   0.75513   1.000
    C491    C    0.74652   0.34949   0.75513   1.000
    C492    C    0.35009   0.19184   0.48887   1.000
    C493    C    0.85008   0.19184   0.48887   1.000
    C494    C    0.28484   0.17457   0.58460   1.000
    C495    C    0.78483   0.17456   0.58460   1.000
    C496    C    0.11193   0.82014   0.51691   1.000
    C497    C    0.61193   0.82013   0.51691   1.000
    C498    C    0.02214   0.81691   0.59440   1.000
    C499    C    0.52214   0.81690   0.59447   1.000
    C500    C    0.48451   0.77309   0.34775   1.000
    C501    C    0.98451   0.77309   0.34775   1.000
    C502    C    0.42733   0.67742   0.31349   1.000
    C503    C    0.92733   0.67742   0.31349   1.000
    C504    C    0.15013   0.69729   0.29713   1.000
    C505    C    0.65013   0.69730   0.29713   1.000
    C506    C    0.24652   0.65053   0.24489   1.000
    C507    C    0.74651   0.65054   0.24488   1.000
    C508    C    0.35008   0.80818   0.51114   1.000
    C509    C    0.85007   0.80818   0.51114   1.000
    C510    C    0.28483   0.82546   0.41541   1.000
    C511    C    0.78482   0.82546   0.41541   1.000
    C512    C    0.11193   0.48311   0.82014   1.000
    C513    C    0.61193   0.48310   0.82013   1.000
    C514    C    0.02215   0.40555   0.81690   1.000
    C515    C    0.52214   0.40555   0.81690   1.000
    C516    C    0.48452   0.65227   0.77308   1.000
    C517    C    0.98451   0.65226   0.77308   1.000
    C518    C    0.42733   0.68652   0.67742   1.000
    C519    C    0.92733   0.68652   0.67742   1.000
    C520    C    0.15013   0.70289   0.69728   1.000
    C521    C    0.65012   0.70289   0.69729   1.000
    C522    C    0.24652   0.75513   0.65052   1.000
    C523    C    0.74651   0.75513   0.65053   1.000
    C524    C    0.35008   0.48888   0.80817   1.000
    C525    C    0.85008   0.48887   0.80817   1.000
    C526    C    0.28484   0.58461   0.82545   1.000
    C527    C    0.78483   0.58460   0.82545   1.000
    C528    C    0.11194   0.51692   0.17988   1.000
    C529    C    0.61193   0.51692   0.17988   1.000
    C530    C    0.02214   0.59447   0.18311   1.000
    C531    C    0.52214   0.59447   0.18311   1.000
    C532    C    0.48452   0.34776   0.22693   1.000
    C533    C    0.98451   0.34776   0.22693   1.000
    C534    C    0.42734   0.31350   0.32259   1.000
    C535    C    0.92733   0.31350   0.32259   1.000
    C536    C    0.15014   0.29713   0.30272   1.000
    C537    C    0.65013   0.29713   0.30272   1.000
    C538    C    0.24652   0.24489   0.34948   1.000
    C539    C    0.74652   0.24489   0.34948   1.000
    C540    C    0.35008   0.51115   0.19184   1.000
    C541    C    0.85007   0.51115   0.19184   1.000
    C542    C    0.28483   0.41542   0.17456   1.000
    C543    C    0.78483   0.41542   0.17456   1.000
    O544    O    0.74896   0.77565   0.01870   1.000
    O545    O    0.78186   0.73051   0.01950   1.000
    O546    O    0.78438   0.77608   0.97558   1.000
    O547    O    0.73885   0.74561   0.98699   1.000
    O548    O    0.24896   0.77565   0.01870   1.000
    O549    O    0.28187   0.73050   0.01974   1.000
    O550    O    0.28438   0.77608   0.97558   1.000
    O551    O    0.23885   0.74561   0.98699   1.000
    O552    O    0.84561   0.86086   0.99713   1.000
    O553    O    0.34562   0.86086   0.99713   1.000
    O554    O    0.57699   0.70061   0.98909   1.000
    O555    O    0.07700   0.70061   0.98909   1.000
    O556    O    0.83332   0.18408   0.03078   1.000
    O557    O    0.89177   0.15151   0.03424   1.000
    O558    O    0.86914   0.17634   0.99057   1.000
    O559    O    0.84562   0.13916   0.00287   1.000
    O560    O    0.33332   0.18408   0.03080   1.000
    O561    O    0.39177   0.15151   0.03425   1.000
    O562    O    0.36915   0.17634   0.99059   1.000
    O563    O    0.34563   0.13916   0.00289   1.000
    O564    O    0.54079   0.20224   0.01793   1.000
    O565    O    0.04080   0.20224   0.01793   1.000
    O566    O    0.33208   0.69139   0.02820   1.000
    O567    O    0.37229   0.68262   0.94652   1.000
    O568    O    0.83207   0.69139   0.02795   1.000
    O569    O    0.87228   0.68262   0.94652   1.000
    O570    O    0.03627   0.25568   0.02789   1.000
    O571    O    0.99437   0.20933   0.05020   1.000
    O572    O    0.00295   0.22265   0.99919   1.000
    O573    O    0.53626   0.25568   0.02789   1.000
    O574    O    0.49437   0.20933   0.05021   1.000
    O575    O    0.50295   0.22265   0.99920   1.000
    O576    O    0.00295   0.77737   0.00082   1.000
    O577    O    0.50294   0.77737   0.00082   1.000
    O578    O    0.73885   0.25441   0.01283   1.000
    O579    O    0.23885   0.25441   0.01283   1.000
    O580    O    0.94040   0.12180   0.04161   1.000
    O581    O    0.44041   0.12180   0.04161   1.000
    O582    O    0.86913   0.82368   0.00939   1.000
    O583    O    0.36914   0.82368   0.00939   1.000
    O584    O    0.54437   0.30805   0.05878   1.000
    O585    O    0.57700   0.29941   0.01092   1.000
    O586    O    0.04438   0.30805   0.05878   1.000
    O587    O    0.07700   0.29941   0.01092   1.000
    O588    O    0.78718   0.69301   0.06673   1.000
    O589    O    0.28718   0.69301   0.06698   1.000
    O590    O    0.28492   0.18655   0.07280   1.000
    O591    O    0.28438   0.22394   0.02424   1.000
    O592    O    0.78492   0.18655   0.07280   1.000
    O593    O    0.78438   0.22394   0.02424   1.000
    O594    O    0.94714   0.16939   0.06669   1.000
    O595    O    0.91427   0.12811   0.07868   1.000
    O596    O    0.44715   0.16939   0.06669   1.000
    O597    O    0.41428   0.12811   0.07868   1.000
    O598    O    0.74249   0.15077   0.08357   1.000
    O599    O    0.24250   0.15077   0.08359   1.000
    O600    O    0.99067   0.18838   0.10795   1.000
    O601    O    0.49067   0.18837   0.10797   1.000
    O602    O    0.20279   0.68387   0.12095   1.000
    O603    O    0.70279   0.68387   0.12095   1.000
    O604    O    0.28041   0.15030   0.11141   1.000
    O605    O    0.24201   0.18837   0.12308   1.000
    O606    O    0.78041   0.15030   0.11141   1.000
    O607    O    0.74201   0.18837   0.12308   1.000
    O608    O    0.44040   0.95841   0.12178   1.000
    O609    O    0.94039   0.95841   0.12178   1.000
    O610    O    0.41427   0.92134   0.12810   1.000
    O611    O    0.91427   0.92134   0.12810   1.000
    O612    O    0.34562   0.99713   0.13914   1.000
    O613    O    0.84561   0.99713   0.13915   1.000
    O614    O    0.39139   0.25598   0.16337   1.000
    O615    O    0.37229   0.31740   0.05349   1.000
    O616    O    0.89138   0.25597   0.16337   1.000
    O617    O    0.87228   0.31740   0.05349   1.000
    O618    O    0.52568   0.86476   0.15437   1.000
    O619    O    0.02568   0.86476   0.15437   1.000
    O620    O    0.52568   0.15437   0.13526   1.000
    O621    O    0.02569   0.15437   0.13524   1.000
    O622    O    0.28041   0.88861   0.15029   1.000
    O623    O    0.78040   0.88861   0.15030   1.000
    O624    O    0.24249   0.91643   0.15076   1.000
    O625    O    0.74248   0.91643   0.15076   1.000
    O626    O    0.03264   0.19760   0.14292   1.000
    O627    O    0.98828   0.17708   0.17067   1.000
    O628    O    0.53263   0.19760   0.14292   1.000
    O629    O    0.48828   0.17707   0.17068   1.000
    O630    O    0.39177   0.96577   0.15149   1.000
    O631    O    0.44714   0.93333   0.16937   1.000
    O632    O    0.89176   0.96577   0.15149   1.000
    O633    O    0.94713   0.93333   0.16937   1.000
    O634    O    0.65538   0.74906   0.16242   1.000
    O635    O    0.15539   0.74906   0.16242   1.000
    O636    O    0.72797   0.24135   0.15084   1.000
    O637    O    0.69938   0.19351   0.16797   1.000
    O638    O    0.22798   0.24135   0.15084   1.000
    O639    O    0.19939   0.19351   0.16797   1.000
    O640    O    0.48093   0.77094   0.16291   1.000
    O641    O    0.98093   0.77094   0.16293   1.000
    O642    O    0.86913   0.00944   0.17629   1.000
    O643    O    0.83331   0.96922   0.18407   1.000
    O644    O    0.36914   0.00944   0.17629   1.000
    O645    O    0.33332   0.96922   0.18407   1.000
    O646    O    0.28492   0.92722   0.18654   1.000
    O647    O    0.24201   0.87693   0.18836   1.000
    O648    O    0.78491   0.92722   0.18654   1.000
    O649    O    0.74200   0.87694   0.18836   1.000
    O650    O    0.79437   0.44123   0.19193   1.000
    O651    O    0.29437   0.44123   0.19193   1.000
    O652    O    0.48828   0.82933   0.17705   1.000
    O653    O    0.43274   0.79706   0.18629   1.000
    O654    O    0.98828   0.82933   0.17707   1.000
    O655    O    0.93273   0.79706   0.18631   1.000
    O656    O    0.19938   0.83205   0.19351   1.000
    O657    O    0.69938   0.83204   0.19351   1.000
    O658    O    0.49066   0.89204   0.18837   1.000
    O659    O    0.53262   0.85707   0.19759   1.000
    O660    O    0.99066   0.89204   0.18837   1.000
    O661    O    0.03263   0.85707   0.19759   1.000
    O662    O    0.62229   0.44653   0.18261   1.000
    O663    O    0.58208   0.52821   0.19138   1.000
    O664    O    0.12229   0.44653   0.18261   1.000
    O665    O    0.08209   0.52821   0.19138   1.000
    O666    O    0.45279   0.62096   0.18385   1.000
    O667    O    0.53718   0.56699   0.19300   1.000
    O668    O    0.95279   0.62096   0.18355   1.000
    O669    O    0.03719   0.56699   0.19300   1.000
    O670    O    0.04079   0.98209   0.20224   1.000
    O671    O    0.54078   0.98209   0.20224   1.000
    O672    O    0.90538   0.66243   0.24874   1.000
    O673    O    0.40539   0.66243   0.24904   1.000
    O674    O    0.14139   0.33664   0.24403   1.000
    O675    O    0.64138   0.33664   0.24403   1.000
    O676    O    0.15540   0.16242   0.25096   1.000
    O677    O    0.65539   0.16242   0.25096   1.000
    O678    O    0.32700   0.48909   0.20057   1.000
    O679    O    0.82699   0.48909   0.20057   1.000
    O680    O    0.39138   0.83665   0.25597   1.000
    O681    O    0.89138   0.83665   0.25597   1.000
    O682    O    0.49436   0.94981   0.20932   1.000
    O683    O    0.99436   0.94981   0.20932   1.000
    O684    O    0.93274   0.18632   0.20295   1.000
    O685    O    0.43274   0.18632   0.20295   1.000
    O686    O    0.03187   0.51995   0.23049   1.000
    O687    O    0.53187   0.51995   0.23049   1.000
    O688    O    0.98093   0.16294   0.22906   1.000
    O689    O    0.48094   0.16294   0.22908   1.000
    O690    O    0.78437   0.97558   0.22393   1.000
    O691    O    0.28438   0.97558   0.22393   1.000
    O692    O    0.74896   0.01874   0.22437   1.000
    O693    O    0.24896   0.01874   0.22437   1.000
    O694    O    0.28626   0.47212   0.24430   1.000
    O695    O    0.78626   0.47212   0.24430   1.000
    O696    O    0.22797   0.84917   0.24134   1.000
    O697    O    0.72797   0.84917   0.24134   1.000
    O698    O    0.00295   0.00082   0.22265   1.000
    O699    O    0.03626   0.97213   0.25568   1.000
    O700    O    0.50294   0.00082   0.22265   1.000
    O701    O    0.53626   0.97213   0.25565   1.000
    O702    O    0.97797   0.34916   0.25847   1.000
    O703    O    0.47797   0.34916   0.25847   1.000
    O704    O    0.98885   0.48718   0.24555   1.000
    O705    O    0.48885   0.48718   0.24555   1.000
    O706    O    0.23885   0.98699   0.25440   1.000
    O707    O    0.28187   0.01975   0.26951   1.000
    O708    O    0.73884   0.98699   0.25440   1.000
    O709    O    0.78186   0.01975   0.26951   1.000
    O710    O    0.73093   0.66295   0.27093   1.000
    O711    O    0.23094   0.66295   0.27093   1.000
    O712    O    0.49896   0.51894   0.27563   1.000
    O713    O    0.53438   0.47577   0.27607   1.000
    O714    O    0.99896   0.51895   0.27563   1.000
    O715    O    0.03438   0.47577   0.27607   1.000
    O716    O    0.25295   0.50082   0.27736   1.000
    O717    O    0.75294   0.50082   0.27736   1.000
    O718    O    0.24437   0.44980   0.29068   1.000
    O719    O    0.29079   0.48208   0.29776   1.000
    O720    O    0.74437   0.44980   0.29068   1.000
    O721    O    0.79079   0.48208   0.29776   1.000
    O722    O    0.78263   0.35706   0.30241   1.000
    O723    O    0.28263   0.35706   0.30241   1.000
    O724    O    0.94938   0.33203   0.30630   1.000
    O725    O    0.99201   0.37692   0.31145   1.000
    O726    O    0.44938   0.33204   0.30630   1.000
    O727    O    0.49201   0.37693   0.31145   1.000
    O728    O    0.57699   0.98909   0.29938   1.000
    O729    O    0.54437   0.94124   0.30802   1.000
    O730    O    0.07700   0.98909   0.29941   1.000
    O731    O    0.04437   0.94124   0.30805   1.000
    O732    O    0.53492   0.42721   0.31346   1.000
    O733    O    0.58332   0.46921   0.31593   1.000
    O734    O    0.03493   0.42721   0.31346   1.000
    O735    O    0.08332   0.46921   0.31593   1.000
    O736    O    0.68274   0.68633   0.29705   1.000
    O737    O    0.73828   0.67708   0.32932   1.000
    O738    O    0.18274   0.68633   0.29705   1.000
    O739    O    0.23828   0.67709   0.32929   1.000
    O740    O    0.28719   0.06698   0.30701   1.000
    O741    O    0.33209   0.02820   0.30862   1.000
    O742    O    0.78718   0.06698   0.30701   1.000
    O743    O    0.83208   0.02820   0.30862   1.000
    O744    O    0.64138   0.75599   0.33664   1.000
    O745    O    0.14138   0.75598   0.33664   1.000
    O746    O    0.74067   0.39203   0.31163   1.000
    O747    O    0.69714   0.43332   0.33061   1.000
    O748    O    0.24067   0.39203   0.31163   1.000
    O749    O    0.19715   0.43332   0.33061   1.000
    O750    O    0.18275   0.29705   0.31369   1.000
    O751    O    0.68274   0.29705   0.31368   1.000
    O752    O    0.61914   0.50944   0.32366   1.000
    O753    O    0.11914   0.50944   0.32366   1.000
    O754    O    0.44938   0.69352   0.33203   1.000
    O755    O    0.94937   0.69352   0.33203   1.000
    O756    O    0.37229   0.94653   0.31739   1.000
    O757    O    0.87228   0.94653   0.31739   1.000
    O758    O    0.20280   0.12095   0.31615   1.000
    O759    O    0.70279   0.12095   0.31615   1.000
    O760    O    0.23828   0.32932   0.32294   1.000
    O761    O    0.27569   0.36475   0.34563   1.000
    O762    O    0.73828   0.32932   0.32293   1.000
    O763    O    0.77568   0.36475   0.34563   1.000
    O764    O    0.40539   0.24905   0.33758   1.000
    O765    O    0.90539   0.24905   0.33755   1.000
    O766    O    0.73094   0.27093   0.33707   1.000
    O767    O    0.23094   0.27093   0.33707   1.000
    O768    O    0.49249   0.41642   0.34924   1.000
    O769    O    0.53041   0.38860   0.34971   1.000
    O770    O    0.99249   0.41642   0.34924   1.000
    O771    O    0.03041   0.38860   0.34971   1.000
    O772    O    0.14177   0.46576   0.34850   1.000
    O773    O    0.09562   0.49713   0.36085   1.000
    O774    O    0.64177   0.46576   0.34850   1.000
    O775    O    0.59562   0.49713   0.36085   1.000
    O776    O    0.47797   0.74136   0.34916   1.000
    O777    O    0.97796   0.74136   0.34915   1.000
    O778    O    0.99200   0.68838   0.37692   1.000
    O779    O    0.49201   0.68838   0.37692   1.000
    O780    O    0.78262   0.69761   0.35706   1.000
    O781    O    0.28264   0.69761   0.35703   1.000
    O782    O    0.95279   0.18386   0.37900   1.000
    O783    O    0.45279   0.18386   0.37906   1.000
    O784    O    0.16428   0.42133   0.37190   1.000
    O785    O    0.19041   0.45840   0.37821   1.000
    O786    O    0.66428   0.42133   0.37190   1.000
    O787    O    0.69040   0.45840   0.37821   1.000
    O788    O    0.27568   0.65439   0.36470   1.000
    O789    O    0.24067   0.68839   0.39200   1.000
    O790    O    0.77568   0.65438   0.36474   1.000
    O791    O    0.74066   0.68839   0.39203   1.000
    O792    O    0.53041   0.65031   0.38859   1.000
    O793    O    0.03041   0.65031   0.38859   1.000
    O794    O    0.62228   0.81741   0.44653   1.000
    O795    O    0.12228   0.81741   0.44653   1.000
    O796    O    0.66427   0.62812   0.42132   1.000
    O797    O    0.16428   0.62812   0.42132   1.000
    O798    O    0.49249   0.65078   0.41642   1.000
    O799    O    0.53492   0.68656   0.42721   1.000
    O800    O    0.99249   0.65078   0.41642   1.000
    O801    O    0.03492   0.68656   0.42721   1.000
    O802    O    0.03719   0.19300   0.43301   1.000
    O803    O    0.53719   0.19300   0.43302   1.000
    O804    O    0.29437   0.80806   0.44122   1.000
    O805    O    0.79436   0.80806   0.44122   1.000
    O806    O    0.19715   0.66940   0.43332   1.000
    O807    O    0.24437   0.70934   0.44980   1.000
    O808    O    0.69714   0.66940   0.43332   1.000
    O809    O    0.74437   0.70934   0.44980   1.000
    O810    O    0.69040   0.62181   0.45839   1.000
    O811    O    0.64177   0.65152   0.46571   1.000
    O812    O    0.19041   0.62181   0.45839   1.000
    O813    O    0.14178   0.65152   0.46576   1.000
    O814    O    0.58332   0.68409   0.46917   1.000
    O815    O    0.53438   0.72395   0.47576   1.000
    O816    O    0.08333   0.68409   0.46921   1.000
    O817    O    0.03439   0.72395   0.47577   1.000
    O818    O    0.58209   0.19138   0.47180   1.000
    O819    O    0.53187   0.23049   0.48007   1.000
    O820    O    0.08209   0.19138   0.47180   1.000
    O821    O    0.03188   0.23049   0.48007   1.000
    O822    O    0.49896   0.27564   0.48108   1.000
    O823    O    0.99896   0.27564   0.48108   1.000
    O824    O    0.28626   0.75569   0.47212   1.000
    O825    O    0.32699   0.79942   0.48909   1.000
    O826    O    0.78626   0.75569   0.47211   1.000
    O827    O    0.82699   0.79942   0.48909   1.000
    O828    O    0.11915   0.32367   0.49058   1.000
    O829    O    0.61914   0.32367   0.49058   1.000
    O830    O    0.98885   0.75442   0.48718   1.000
    O831    O    0.48885   0.75442   0.48718   1.000
    O832    O    0.75294   0.27736   0.49919   1.000
    O833    O    0.25295   0.27736   0.49919   1.000
    O834    O    0.79079   0.70225   0.48207   1.000
    O835    O    0.75294   0.72266   0.50082   1.000
    O836    O    0.29079   0.70225   0.48207   1.000
    O837    O    0.25294   0.72266   0.50082   1.000
    O838    O    0.12230   0.18261   0.55349   1.000
    O839    O    0.62229   0.18261   0.55349   1.000
    O840    O    0.59562   0.63917   0.49709   1.000
    O841    O    0.61914   0.67635   0.50935   1.000
    O842    O    0.09562   0.63917   0.49713   1.000
    O843    O    0.11914   0.67635   0.50939   1.000
    O844    O    0.82699   0.20060   0.51093   1.000
    O845    O    0.32700   0.20060   0.51093   1.000
    O846    O    0.09563   0.36085   0.50289   1.000
    O847    O    0.59562   0.36085   0.50289   1.000
    O848    O    0.98885   0.24560   0.51284   1.000
    O849    O    0.03439   0.27607   0.52421   1.000
    O850    O    0.48885   0.24560   0.51281   1.000
    O851    O    0.53438   0.27607   0.52424   1.000
    O852    O    0.49896   0.72439   0.51889   1.000
    O853    O    0.53186   0.76953   0.51994   1.000
    O854    O    0.99896   0.72438   0.51894   1.000
    O855    O    0.03188   0.76952   0.51996   1.000
    O856    O    0.08333   0.31593   0.53077   1.000
    O857    O    0.14178   0.34850   0.53426   1.000
    O858    O    0.58332   0.31593   0.53080   1.000
    O859    O    0.64177   0.34850   0.53426   1.000
    O860    O    0.29080   0.29777   0.51793   1.000
    O861    O    0.79079   0.29777   0.51794   1.000
    O862    O    0.58208   0.80864   0.52820   1.000
    O863    O    0.08208   0.80864   0.52821   1.000
    O864    O    0.28627   0.24433   0.52789   1.000
    O865    O    0.24438   0.29068   0.55021   1.000
    O866    O    0.78626   0.24433   0.52790   1.000
    O867    O    0.74437   0.29068   0.55021   1.000
    O868    O    0.69040   0.37821   0.54162   1.000
    O869    O    0.19041   0.37821   0.54162   1.000
    O870    O    0.79437   0.19196   0.55879   1.000
    O871    O    0.29438   0.19196   0.55879   1.000
    O872    O    0.53718   0.80702   0.56699   1.000
    O873    O    0.03719   0.80702   0.56695   1.000
    O874    O    0.03493   0.31346   0.57277   1.000
    O875    O    0.53492   0.31346   0.57281   1.000
    O876    O    0.69714   0.33062   0.56669   1.000
    O877    O    0.66428   0.37190   0.57869   1.000
    O878    O    0.19715   0.33062   0.56669   1.000
    O879    O    0.16428   0.37190   0.57869   1.000
    O880    O    0.49249   0.34925   0.58360   1.000
    O881    O    0.99249   0.34924   0.58360   1.000
    O882    O    0.24067   0.31164   0.60798   1.000
    O883    O    0.74067   0.31163   0.60796   1.000
    O884    O    0.95279   0.81617   0.62091   1.000
    O885    O    0.45279   0.81616   0.62096   1.000
    O886    O    0.03042   0.34971   0.61142   1.000
    O887    O    0.99201   0.31165   0.62309   1.000
    O888    O    0.53041   0.34971   0.61142   1.000
    O889    O    0.49201   0.31165   0.62309   1.000
    O890    O    0.19041   0.54162   0.62181   1.000
    O891    O    0.69041   0.54162   0.62181   1.000
    O892    O    0.16428   0.57870   0.62812   1.000
    O893    O    0.66428   0.57870   0.62812   1.000
    O894    O    0.09563   0.50289   0.63915   1.000
    O895    O    0.59562   0.50289   0.63915   1.000
    O896    O    0.14139   0.24404   0.66334   1.000
    O897    O    0.64139   0.24404   0.66338   1.000
    O898    O    0.77568   0.63527   0.65438   1.000
    O899    O    0.27568   0.63527   0.65438   1.000
    O900    O    0.27569   0.34564   0.63526   1.000
    O901    O    0.77568   0.34564   0.63524   1.000
    O902    O    0.53041   0.61142   0.65031   1.000
    O903    O    0.03041   0.61142   0.65031   1.000
    O904    O    0.99249   0.58360   0.65077   1.000
    O905    O    0.49249   0.58360   0.65077   1.000
    O906    O    0.78263   0.30241   0.64292   1.000
    O907    O    0.73828   0.32294   0.67067   1.000
    O908    O    0.28264   0.30241   0.64292   1.000
    O909    O    0.23829   0.32294   0.67070   1.000
    O910    O    0.64177   0.53427   0.65152   1.000
    O911    O    0.69714   0.56670   0.66940   1.000
    O912    O    0.14178   0.53426   0.65152   1.000
    O913    O    0.19715   0.56670   0.66940   1.000
    O914    O    0.90538   0.75097   0.66243   1.000
    O915    O    0.40539   0.75097   0.66243   1.000
    O916    O    0.97797   0.25867   0.65086   1.000
    O917    O    0.94938   0.30650   0.66799   1.000
    O918    O    0.47798   0.25867   0.65086   1.000
    O919    O    0.44938   0.30650   0.66799   1.000
    O920    O    0.23094   0.72909   0.66294   1.000
    O921    O    0.73093   0.72909   0.66295   1.000
    O922    O    0.11915   0.49059   0.67634   1.000
    O923    O    0.08333   0.53081   0.68409   1.000
    O924    O    0.61914   0.49059   0.67634   1.000
    O925    O    0.58332   0.53081   0.68409   1.000
    O926    O    0.03493   0.57281   0.68656   1.000
    O927    O    0.99201   0.62310   0.68838   1.000
    O928    O    0.53492   0.57281   0.68656   1.000
    O929    O    0.49201   0.62310   0.68838   1.000
    O930    O    0.04438   0.05879   0.69194   1.000
    O931    O    0.54438   0.05879   0.69194   1.000
    O932    O    0.73828   0.67070   0.67708   1.000
    O933    O    0.68274   0.70297   0.68632   1.000
    O934    O    0.23829   0.67070   0.67708   1.000
    O935    O    0.18274   0.70297   0.68632   1.000
    O936    O    0.94937   0.66799   0.69352   1.000
    O937    O    0.44938   0.66799   0.69352   1.000
    O938    O    0.74067   0.60799   0.68838   1.000
    O939    O    0.78263   0.64296   0.69760   1.000
    O940    O    0.24067   0.60799   0.68838   1.000
    O941    O    0.28264   0.64296   0.69760   1.000
    O942    O    0.37229   0.05349   0.68262   1.000
    O943    O    0.33208   0.97182   0.69139   1.000
    O944    O    0.87228   0.05349   0.68262   1.000
    O945    O    0.83207   0.97182   0.69139   1.000
    O946    O    0.70279   0.87908   0.68386   1.000
    O947    O    0.78718   0.93304   0.69300   1.000
    O948    O    0.20279   0.87907   0.68387   1.000
    O949    O    0.28719   0.93304   0.69301   1.000
    O950    O    0.29079   0.51794   0.70225   1.000
    O951    O    0.79079   0.51794   0.70225   1.000
    O952    O    0.15539   0.83760   0.74905   1.000
    O953    O    0.65539   0.83760   0.74905   1.000
    O954    O    0.89138   0.16337   0.74405   1.000
    O955    O    0.39139   0.16337   0.74404   1.000
    O956    O    0.40539   0.33759   0.75097   1.000
    O957    O    0.90538   0.33759   0.75097   1.000
    O958    O    0.57700   0.01093   0.70057   1.000
    O959    O    0.07700   0.01093   0.70057   1.000
    O960    O    0.14139   0.66338   0.75598   1.000
    O961    O    0.64138   0.66338   0.75598   1.000
    O962    O    0.74437   0.55022   0.70934   1.000
    O963    O    0.24437   0.55022   0.70934   1.000
    O964    O    0.18275   0.31369   0.70292   1.000
    O965    O    0.68274   0.31369   0.70296   1.000
    O966    O    0.28187   0.98007   0.73050   1.000
    O967    O    0.78187   0.98007   0.73050   1.000
    O968    O    0.23094   0.33707   0.72909   1.000
    O969    O    0.73094   0.33707   0.72909   1.000
    O970    O    0.03439   0.52425   0.72395   1.000
    O971    O    0.53438   0.52425   0.72395   1.000
    O972    O    0.99896   0.48108   0.72437   1.000
    O973    O    0.49896   0.48108   0.72438   1.000
    O974    O    0.53627   0.02789   0.74431   1.000
    O975    O    0.03627   0.02789   0.74431   1.000
    O976    O    0.97797   0.65086   0.74135   1.000
    O977    O    0.47797   0.65086   0.74135   1.000
    O978    O    0.25295   0.49920   0.72266   1.000
    O979    O    0.28626   0.52790   0.75566   1.000
    O980    O    0.75294   0.49920   0.72266   1.000
    O981    O    0.78626   0.52790   0.75569   1.000
    O982    O    0.22798   0.15085   0.75867   1.000
    O983    O    0.72797   0.15085   0.75867   1.000
    O984    O    0.73886   0.01283   0.74561   1.000
    O985    O    0.23886   0.01283   0.74561   1.000
    O986    O    0.48885   0.51284   0.75442   1.000
    O987    O    0.53187   0.48007   0.76952   1.000
    O988    O    0.98886   0.51284   0.75442   1.000
    O989    O    0.03188   0.48006   0.76952   1.000
    O990    O    0.98093   0.83708   0.77094   1.000
    O991    O    0.48094   0.83708   0.77094   1.000
    O992    O    0.24897   0.98108   0.77564   1.000
    O993    O    0.28439   0.02424   0.77608   1.000
    O994    O    0.74896   0.98108   0.77565   1.000
    O995    O    0.78438   0.02424   0.77608   1.000
    O996    O    0.50295   0.99920   0.77736   1.000
    O997    O    0.00295   0.99920   0.77736   1.000
    O998    O    0.49438   0.05021   0.79068   1.000
    O999    O    0.54080   0.01794   0.79777   1.000
    O1000   O    0.99438   0.05021   0.79068   1.000
    O1001   O    0.04080   0.01793   0.79777   1.000
    O1002   O    0.53263   0.14295   0.80242   1.000
    O1003   O    0.03264   0.14295   0.80242   1.000
    O1004   O    0.69938   0.16798   0.80650   1.000
    O1005   O    0.74201   0.12309   0.81165   1.000
    O1006   O    0.19939   0.16798   0.80651   1.000
    O1007   O    0.24202   0.12309   0.81166   1.000
    O1008   O    0.32700   0.51093   0.79939   1.000
    O1009   O    0.29438   0.55880   0.80802   1.000
    O1010   O    0.82699   0.51093   0.79942   1.000
    O1011   O    0.79437   0.55880   0.80805   1.000
    O1012   O    0.28493   0.07280   0.81347   1.000
    O1013   O    0.33333   0.03080   0.81594   1.000
    O1014   O    0.78492   0.07280   0.81347   1.000
    O1015   O    0.83332   0.03080   0.81594   1.000
    O1016   O    0.93274   0.81370   0.79706   1.000
    O1017   O    0.98828   0.82295   0.82933   1.000
    O1018   O    0.43274   0.81370   0.79706   1.000
    O1019   O    0.48828   0.82295   0.82933   1.000
    O1020   O    0.53719   0.43303   0.80702   1.000
    O1021   O    0.58208   0.47181   0.80863   1.000
    O1022   O    0.03719   0.43303   0.80702   1.000
    O1023   O    0.08209   0.47181   0.80863   1.000
    O1024   O    0.39139   0.74404   0.83665   1.000
    O1025   O    0.89138   0.74404   0.83665   1.000
    O1026   O    0.49067   0.10798   0.81164   1.000
    O1027   O    0.44715   0.06669   0.83063   1.000
    O1028   O    0.99068   0.10798   0.81164   1.000
    O1029   O    0.94715   0.06669   0.83058   1.000
    O1030   O    0.43275   0.20296   0.81370   1.000
    O1031   O    0.93274   0.20296   0.81370   1.000
    O1032   O    0.86914   0.99059   0.82367   1.000
    O1033   O    0.36915   0.99059   0.82368   1.000
    O1034   O    0.69938   0.80651   0.83204   1.000
    O1035   O    0.19939   0.80651   0.83200   1.000
    O1036   O    0.12229   0.55349   0.81740   1.000
    O1037   O    0.62229   0.55349   0.81740   1.000
    O1038   O    0.45280   0.37907   0.81616   1.000
    O1039   O    0.95279   0.37907   0.81616   1.000
    O1040   O    0.98829   0.17069   0.82294   1.000
    O1041   O    0.02569   0.13526   0.84564   1.000
    O1042   O    0.48829   0.17069   0.82295   1.000
    O1043   O    0.52569   0.13526   0.84564   1.000
    O1044   O    0.15540   0.25096   0.83760   1.000
    O1045   O    0.65539   0.25096   0.83755   1.000
    O1046   O    0.98093   0.22908   0.83683   1.000
    O1047   O    0.48094   0.22908   0.83708   1.000
    O1048   O    0.24250   0.08359   0.84925   1.000
    O1049   O    0.28042   0.11141   0.84972   1.000
    O1050   O    0.74250   0.08359   0.84925   1.000
    O1051   O    0.78041   0.11141   0.84972   1.000
    O1052   O    0.89177   0.03425   0.84847   1.000
    O1053   O    0.84562   0.00289   0.86086   1.000
    O1054   O    0.39178   0.03425   0.84851   1.000
    O1055   O    0.34563   0.00289   0.86086   1.000
    O1056   O    0.72797   0.75868   0.84917   1.000
    O1057   O    0.22798   0.75868   0.84913   1.000
    O1058   O    0.24201   0.81166   0.87685   1.000
    O1059   O    0.74200   0.81166   0.87689   1.000
    O1060   O    0.03263   0.80242   0.85707   1.000
    O1061   O    0.53263   0.80243   0.85707   1.000
    O1062   O    0.70279   0.31615   0.87900   1.000
    O1063   O    0.20280   0.31615   0.87907   1.000
    O1064   O    0.91428   0.07869   0.87186   1.000
    O1065   O    0.94041   0.04161   0.87818   1.000
    O1066   O    0.41428   0.07869   0.87191   1.000
    O1067   O    0.44041   0.04161   0.87822   1.000
    O1068   O    0.52568   0.84565   0.86476   1.000
    O1069   O    0.49067   0.81165   0.89204   1.000
    O1070   O    0.02569   0.84565   0.86476   1.000
    O1071   O    0.99067   0.81165   0.89204   1.000
    O1072   O    0.28041   0.84972   0.88856   1.000
    O1073   O    0.78040   0.84972   0.88856   1.000
    O1074   O    0.41428   0.87191   0.92133   1.000
    O1075   O    0.91427   0.87191   0.92133   1.000
    O1076   O    0.74249   0.84926   0.91639   1.000
    O1077   O    0.78491   0.81347   0.92717   1.000
    O1078   O    0.24249   0.84926   0.91639   1.000
    O1079   O    0.28492   0.81347   0.92717   1.000
    O1080   O    0.78719   0.30701   0.93301   1.000
    O1081   O    0.28719   0.30701   0.93304   1.000
    O1082   O    0.04438   0.69197   0.94123   1.000
    O1083   O    0.54437   0.69197   0.94123   1.000
    O1084   O    0.44714   0.83063   0.93333   1.000
    O1085   O    0.49437   0.79069   0.94981   1.000
    O1086   O    0.94714   0.83063   0.93333   1.000
    O1087   O    0.99437   0.79069   0.94981   1.000
    O1088   O    0.94040   0.87822   0.95841   1.000
    O1089   O    0.89176   0.84851   0.96576   1.000
    O1090   O    0.44040   0.87822   0.95841   1.000
    O1091   O    0.39177   0.84851   0.96576   1.000
    O1092   O    0.83332   0.81594   0.96922   1.000
    O1093   O    0.33332   0.81594   0.96922   1.000
    O1094   O    0.33209   0.30863   0.97182   1.000
    O1095   O    0.28187   0.26952   0.98007   1.000
    O1096   O    0.83208   0.30863   0.97182   1.000
    O1097   O    0.78187   0.26952   0.98007   1.000
    O1098   O    0.74896   0.22437   0.98108   1.000
    O1099   O    0.24897   0.22438   0.98108   1.000
    O1100   O    0.03627   0.74434   0.97212   1.000
    O1101   O    0.53626   0.74434   0.97212   1.000
    O1102   O    0.54079   0.79778   0.98208   1.000
    O1103   O    0.04080   0.79778   0.98208   1.000
    O1104   O    0.32779   0.66528   0.13953   1.000
    O1105   O    0.82778   0.66528   0.13923   1.000
    O1106   O    0.30858   0.70615   0.86196   1.000
    O1107   O    0.18358   0.67541   0.83122   1.000
    O1108   O    0.80857   0.70615   0.86196   1.000
    O1109   O    0.68358   0.67541   0.83122   1.000
    O1110   O    0.39179   0.80908   0.72229   1.000
    O1111   O    0.89178   0.80908   0.72228   1.000
    O1112   O    0.43998   0.83246   0.69617   1.000
    O1113   O    0.56498   0.85104   0.71475   1.000
    O1114   O    0.93997   0.83246   0.69616   1.000
    O1115   O    0.06498   0.85104   0.71475   1.000
    O1116   O    0.11676   0.68823   0.07928   1.000
    O1117   O    0.61676   0.68823   0.07928   1.000
    O1118   O    0.95874   0.67996   0.89578   1.000
    O1119   O    0.08374   0.64922   0.86505   1.000
    O1120   O    0.45874   0.67996   0.89578   1.000
    O1121   O    0.58374   0.64922   0.86505   1.000
    O1122   O    0.32780   0.33474   0.86049   1.000
    O1123   O    0.82779   0.33474   0.86046   1.000
    O1124   O    0.30858   0.29387   0.13806   1.000
    O1125   O    0.18358   0.32461   0.16880   1.000
    O1126   O    0.80857   0.29387   0.13806   1.000
    O1127   O    0.68358   0.32461   0.16880   1.000
    O1128   O    0.39179   0.19094   0.27772   1.000
    O1129   O    0.89178   0.19094   0.27769   1.000
    O1130   O    0.43998   0.16756   0.30385   1.000
    O1131   O    0.56498   0.14898   0.28526   1.000
    O1132   O    0.93998   0.16756   0.30380   1.000
    O1133   O    0.06498   0.14898   0.28525   1.000
    O1134   O    0.11677   0.31179   0.92074   1.000
    O1135   O    0.61676   0.31179   0.92069   1.000
    O1136   O    0.95874   0.32006   0.10423   1.000
    O1137   O    0.08374   0.35080   0.13497   1.000
    O1138   O    0.45874   0.32006   0.10423   1.000
    O1139   O    0.58374   0.35080   0.13497   1.000
    O1140   O    0.32779   0.86049   0.66529   1.000
    O1141   O    0.82778   0.86049   0.66528   1.000
    O1142   O    0.30859   0.13806   0.70615   1.000
    O1143   O    0.18359   0.16880   0.67541   1.000
    O1144   O    0.80858   0.13806   0.70615   1.000
    O1145   O    0.68358   0.16880   0.67541   1.000
    O1146   O    0.39179   0.27773   0.80908   1.000
    O1147   O    0.89178   0.27773   0.80908   1.000
    O1148   O    0.43999   0.30385   0.83245   1.000
    O1149   O    0.56498   0.28527   0.85099   1.000
    O1150   O    0.93998   0.30385   0.83221   1.000
    O1151   O    0.06498   0.28527   0.85080   1.000
    O1152   O    0.11676   0.92074   0.68822   1.000
    O1153   O    0.61676   0.92074   0.68822   1.000
    O1154   O    0.95874   0.10423   0.67996   1.000
    O1155   O    0.08375   0.13497   0.64922   1.000
    O1156   O    0.45874   0.10423   0.67996   1.000
    O1157   O    0.58374   0.13497   0.64922   1.000
    O1158   O    0.32780   0.13953   0.33473   1.000
    O1159   O    0.82779   0.13953   0.33470   1.000
    O1160   O    0.30858   0.86196   0.29386   1.000
    O1161   O    0.18358   0.83122   0.32460   1.000
    O1162   O    0.80857   0.86196   0.29386   1.000
    O1163   O    0.68357   0.83122   0.32460   1.000
    O1164   O    0.39179   0.72229   0.19094   1.000
    O1165   O    0.89178   0.72229   0.19064   1.000
    O1166   O    0.43998   0.69617   0.16756   1.000
    O1167   O    0.56498   0.71475   0.14897   1.000
    O1168   O    0.93997   0.69617   0.16726   1.000
    O1169   O    0.06498   0.71475   0.14897   1.000
    O1170   O    0.11677   0.07928   0.31178   1.000
    O1171   O    0.61676   0.07928   0.31179   1.000
    O1172   O    0.95873   0.89579   0.32005   1.000
    O1173   O    0.08374   0.86505   0.35079   1.000
    O1174   O    0.45873   0.89579   0.32005   1.000
    O1175   O    0.58373   0.86505   0.35079   1.000
    O1176   O    0.07780   0.16527   0.36045   1.000
    O1177   O    0.57779   0.16527   0.36047   1.000
    O1178   O    0.43358   0.17540   0.66880   1.000
    O1179   O    0.55858   0.20614   0.63806   1.000
    O1180   O    0.93358   0.17540   0.66880   1.000
    O1181   O    0.05858   0.20614   0.63806   1.000
    O1182   O    0.14179   0.30907   0.77770   1.000
    O1183   O    0.64179   0.30907   0.77769   1.000
    O1184   O    0.31499   0.35103   0.78527   1.000
    O1185   O    0.18999   0.33245   0.80386   1.000
    O1186   O    0.81498   0.35103   0.78527   1.000
    O1187   O    0.68998   0.33245   0.80382   1.000
    O1188   O    0.36677   0.18822   0.42072   1.000
    O1189   O    0.86676   0.18822   0.42068   1.000
    O1190   O    0.33374   0.14921   0.63498   1.000
    O1191   O    0.20874   0.17995   0.60423   1.000
    O1192   O    0.83374   0.14921   0.63498   1.000
    O1193   O    0.70874   0.17995   0.60423   1.000
    O1194   O    0.07779   0.83475   0.63950   1.000
    O1195   O    0.57779   0.83475   0.63953   1.000
    O1196   O    0.43358   0.82462   0.33121   1.000
    O1197   O    0.55857   0.79388   0.36195   1.000
    O1198   O    0.93357   0.82462   0.33121   1.000
    O1199   O    0.05857   0.79388   0.36195   1.000
    O1200   O    0.14179   0.69095   0.22228   1.000
    O1201   O    0.64178   0.69095   0.22228   1.000
    O1202   O    0.31498   0.64898   0.21474   1.000
    O1203   O    0.18998   0.66757   0.19616   1.000
    O1204   O    0.81498   0.64899   0.21444   1.000
    O1205   O    0.68998   0.66757   0.19615   1.000
    O1206   O    0.36676   0.81180   0.57929   1.000
    O1207   O    0.86675   0.81180   0.57929   1.000
    O1208   O    0.33374   0.85081   0.36503   1.000
    O1209   O    0.20874   0.82007   0.39577   1.000
    O1210   O    0.83373   0.85081   0.36503   1.000
    O1211   O    0.70873   0.82007   0.39577   1.000
    O1212   O    0.07780   0.36048   0.83475   1.000
    O1213   O    0.57779   0.36048   0.83470   1.000
    O1214   O    0.43358   0.66881   0.82462   1.000
    O1215   O    0.55858   0.63807   0.79387   1.000
    O1216   O    0.93357   0.66881   0.82462   1.000
    O1217   O    0.05858   0.63807   0.79387   1.000
    O1218   O    0.14179   0.77774   0.69094   1.000
    O1219   O    0.64178   0.77774   0.69095   1.000
    O1220   O    0.31498   0.78527   0.64898   1.000
    O1221   O    0.18998   0.80386   0.66756   1.000
    O1222   O    0.81497   0.78528   0.64898   1.000
    O1223   O    0.68998   0.80386   0.66757   1.000
    O1224   O    0.36677   0.42073   0.81180   1.000
    O1225   O    0.86676   0.42073   0.81180   1.000
    O1226   O    0.33374   0.63498   0.85080   1.000
    O1227   O    0.20874   0.60424   0.82006   1.000
    O1228   O    0.83373   0.63498   0.85080   1.000
    O1229   O    0.70873   0.60424   0.82006   1.000
    O1230   O    0.07779   0.63954   0.16527   1.000
    O1231   O    0.57779   0.63954   0.16527   1.000
    O1232   O    0.43358   0.33121   0.17539   1.000
    O1233   O    0.55858   0.36195   0.20614   1.000
    O1234   O    0.93357   0.33121   0.17539   1.000
    O1235   O    0.05858   0.36195   0.20614   1.000
    O1236   O    0.14179   0.22228   0.30906   1.000
    O1237   O    0.64179   0.22228   0.30907   1.000
    O1238   O    0.31499   0.21474   0.35102   1.000
    O1239   O    0.18999   0.19616   0.33244   1.000
    O1240   O    0.81498   0.21474   0.35099   1.000
    O1241   O    0.68998   0.19616   0.33245   1.000
    O1242   O    0.36676   0.57929   0.18822   1.000
    O1243   O    0.86676   0.57929   0.18792   1.000
    O1244   O    0.33374   0.36504   0.14921   1.000
    O1245   O    0.20874   0.39578   0.17995   1.000
    O1246   O    0.83373   0.36504   0.14921   1.000
    O1247   O    0.70873   0.39578   0.17995   1.000
loop_
    _geom_bond_atom_site_label_1
    _geom_bond_atom_site_label_2
    _geom_bond_distance
    _geom_bond_site_symmetry_2
    _ccdc_geom_bond_type
    C227   O544      0.55627      .   S
    C37    O544      0.55627      .   S
    C227   O545      0.76517      .   S
    C229   O545      0.76517      .   S
    C227   O546      0.73135  1_554   S
    C385   O546      0.73135      .   S
    C227   O547      0.54754  1_554   S
    C39    O547      0.54754      .   S
    C226   O548      0.55627      .   S
    C36    O548      0.55627      .   S
    C226   O549      0.76762      .   S
    C228   O549      0.76762      .   S
    C226   O550      0.73136  1_554   S
    C384   O550      0.73136      .   S
    C226   O551      0.54753  1_554   S
    C38    O551      0.54753      .   S
    C33    O552      0.55550  1_554   S
    C225   O552      0.55550      .   S
    C32    O553      0.55550  1_554   S
    C224   O553      0.55550      .   S
    C429   O554      0.63156  1_554   S
    C243   O554      0.63156      .   S
    C428   O555      0.63156  1_554   S
    C242   O555      0.63156      .   S
    C245   O556      0.73712      .   S
    C389   O556      0.73712      .   S
    C245   O557      0.76052      .   S
    C255   O557      0.76052      .   S
    C245   O558      0.54897  1_554   S
    C59    O558      0.54897      .   S
    C245   O559      0.55539      .   S
    C57    O559      0.55539  1_556   S
    C244   O560      0.73697      .   S
    C388   O560      0.73697      .   S
    C244   O561      0.76036      .   S
    C254   O561      0.76036      .   S
    C244   O562      0.54921  1_554   S
    C58    O562      0.54921      .   S
    C244   O563      0.55549      .   S
    C56    O563      0.55549  1_556   S
    C79    O564      0.55485      .   S
    C261   O564      0.55485      .   S
    C78    O565      0.55484      .   S
    C260   O565      0.55484      .   S
    C416   O566      0.63343      .   S
    C228   O566      0.63343      .   S
    C416   O567      1.40435  1_554   S
    C2     O567      1.40435      .   S
    C417   O568      0.63173      .   S
    C229   O568      0.63173      .   S
    C417   O569      1.40435  1_554   S
    C3     O569      1.40435      .   S
    C260   O570      0.76964      .   S
    C262   O570      0.76964      .   S
    C260   O571      0.73576  1_455   S
    C391   O571      0.73576      .   S
    C260   O572      0.54918  1_554   S
    C76    O572      0.54918  1_655   S
    C261   O573      0.76963      .   S
    C263   O573      0.76963      .   S
    C261   O574      0.73563      .   S
    C390   O574      0.73563      .   S
    C261   O575      0.54926  1_554   S
    C77    O575      0.54926      .   S
    C52    O576      0.54931  1_655   S
    C240   O576      0.54931  1_556   S
    C53    O577      0.54931      .   S
    C241   O577      0.54931  1_556   S
    C63    O578      0.54941      .   S
    C247   O578      0.54941  1_556   S
    C62    O579      0.54944      .   S
    C246   O579      0.54944  1_556   S
    C69    O580      0.55544      .   S
    C255   O580      0.55544      .   S
    C68    O581      0.55545      .   S
    C254   O581      0.55545      .   S
    C35    O582      0.54856      .   S
    C225   O582      0.54856  1_556   S
    C34    O583      0.54855      .   S
    C224   O583      0.54855  1_556   S
    C263   O584      0.63938      .   S
    C447   O584      0.63938      .   S
    C263   O585      0.63162      .   S
    C445   O585      0.63162  1_556   S
    C262   O586      0.63937      .   S
    C446   O586      0.63937      .   S
    C262   O587      0.63163      .   S
    C444   O587      0.63163  1_556   S
    C229   O588      0.64380      .   S
    C419   O588      0.64380      .   S
    C228   O589      0.63967      .   S
    C418   O589      0.63967      .   S
    C388   O590      0.73404      .   S
    C250   O590      0.73404      .   S
    C388   O591      0.73399      .   S
    C246   O591      0.73399  1_556   S
    C389   O592      0.73403      .   S
    C251   O592      0.73403      .   S
    C389   O593      0.73399      .   S
    C247   O593      0.73399  1_556   S
    C255   O594      0.73669      .   S
    C391   O594      0.73669      .   S
    C255   O595      0.54850      .   S
    C71    O595      0.54850      .   S
    C254   O596      0.73669      .   S
    C390   O596      0.73669      .   S
    C254   O597      0.54848      .   S
    C70    O597      0.54848      .   S
    C65    O598      0.55485      .   S
    C251   O598      0.55485      .   S
    C64    O599      0.55467      .   S
    C250   O599      0.55467      .   S
    C391   O600      0.73306      .   S
    C256   O600      0.73306  1_455   S
    C390   O601      0.73332      .   S
    C257   O601      0.73332      .   S
    C418   O602      1.37552      .   S
    C20    O602      1.37552      .   S
    C419   O603      1.37551      .   S
    C21    O603      1.37551      .   S
    C250   O604      0.54899      .   S
    C66    O604      0.54899      .   S
    C250   O605      0.76797      .   S
    C252   O605      0.76797      .   S
    C251   O606      0.54899      .   S
    C67    O606      0.54899      .   S
    C251   O607      0.76797      .   S
    C253   O607      0.76797      .   S
    C116   O608      0.55533      .   S
    C294   O608      0.55533      .   S
    C117   O609      0.55533      .   S
    C295   O609      0.55533      .   S
    C118   O610      0.54836      .   S
    C294   O610      0.54836      .   S
    C119   O611      0.54836      .   S
    C295   O611      0.54836      .   S
    C104   O612      0.55565  1_545   S
    C284   O612      0.55565      .   S
    C105   O613      0.55549  1_545   S
    C285   O613      0.55549      .   S
    C6     O614      1.40696      .   S
    C440   O614      1.40696      .   S
    C6     O615      1.40434      .   S
    C432   O615      1.40434  1_556   S
    C7     O616      1.40699      .   S
    C441   O616      1.40699      .   S
    C7     O617      1.40434      .   S
    C433   O617      1.40434  1_556   S
    C123   O618      0.55406      .   S
    C297   O618      0.55406      .   S
    C122   O619      0.55407      .   S
    C296   O619      0.55407      .   S
    C75    O620      0.55410      .   S
    C257   O620      0.55410      .   S
    C74    O621      0.55406      .   S
    C256   O621      0.55406      .   S
    C114   O622      0.54892      .   S
    C290   O622      0.54892      .   S
    C115   O623      0.54899      .   S
    C291   O623      0.54899      .   S
    C112   O624      0.55454      .   S
    C290   O624      0.55454      .   S
    C113   O625      0.55460      .   S
    C291   O625      0.55460      .   S
    C256   O626      0.54838      .   S
    C72    O626      0.54838      .   S
    C256   O627      0.76614  1_455   S
    C259   O627      0.76614      .   S
    C257   O628      0.54825      .   S
    C73    O628      0.54825      .   S
    C257   O629      0.76575      .   S
    C258   O629      0.76575      .   S
    C294   O630      0.76046      .   S
    C284   O630      0.76046      .   S
    C294   O631      0.73690      .   S
    C398   O631      0.73690      .   S
    C295   O632      0.76045      .   S
    C285   O632      0.76045      .   S
    C295   O633      0.73691      .   S
    C399   O633      0.73691      .   S
    C21    O634      1.36790      .   S
    C471   O634      1.36790      .   S
    C20    O635      1.36792      .   S
    C470   O635      1.36792      .   S
    C253   O636      0.63896      .   S
    C437   O636      0.63896      .   S
    C253   O637      0.63153      .   S
    C439   O637      0.63153      .   S
    C252   O638      0.63895      .   S
    C436   O638      0.63895      .   S
    C252   O639      0.63152      .   S
    C438   O639      0.63152      .   S
    C474   O640      0.63746      .   S
    C298   O640      0.63746      .   S
    C475   O641      0.63763      .   S
    C299   O641      0.63763      .   S
    C285   O642      0.54880  1_565   S
    C107   O642      0.54880      .   S
    C285   O643      0.73700      .   S
    C397   O643      0.73700      .   S
    C284   O644      0.54879  1_565   S
    C106   O644      0.54879      .   S
    C284   O645      0.73700      .   S
    C396   O645      0.73700      .   S
    C290   O646      0.73405      .   S
    C396   O646      0.73405      .   S
    C290   O647      0.76807      .   S
    C292   O647      0.76807      .   S
    C291   O648      0.73400      .   S
    C397   O648      0.73400      .   S
    C291   O649      0.76801      .   S
    C293   O649      0.76801      .   S
    C543   O650      0.63907      .   S
    C383   O650      0.63907      .   S
    C542   O651      0.63906      .   S
    C382   O651      0.63906      .   S
    C298   O652      0.76574      .   S
    C297   O652      0.76574      .   S
    C298   O653      0.63640      .   S
    C472   O653      0.63640      .   S
    C299   O654      0.76579      .   S
    C296   O654      0.76579  1_455   S
    C299   O655      0.63625      .   S
    C473   O655      0.63625      .   S
    C470   O656      0.63154      .   S
    C292   O656      0.63154      .   S
    C471   O657      0.63153      .   S
    C293   O657      0.63153      .   S
    C297   O658      0.73333      .   S
    C398   O658      0.73333      .   S
    C297   O659      0.54830      .   S
    C121   O659      0.54830      .   S
    C296   O660      0.73339  1_455   S
    C399   O660      0.73339      .   S
    C296   O661      0.54830      .   S
    C120   O661      0.54830      .   S
    C529   O662      1.40456      .   S
    C31    O662      1.40456      .   S
    C529   O663      0.63344      .   S
    C369   O663      0.63344      .   S
    C528   O664      1.40455      .   S
    C30    O664      1.40455      .   S
    C528   O665      0.63343      .   S
    C368   O665      0.63343      .   S
    C531   O666      1.37551      .   S
    C12    O666      1.37551      .   S
    C531   O667      0.63962      .   S
    C369   O667      0.63962      .   S
    C530   O668      1.37556  1_455   S
    C13    O668      1.37556      .   S
    C530   O669      0.63962      .   S
    C368   O669      0.63962      .   S
    C126   O670      0.55483      .   S
    C300   O670      0.55483      .   S
    C127   O671      0.55483      .   S
    C301   O671      0.55483      .   S
    C13    O672      1.37333      .   S
    C503   O672      1.37333      .   S
    C12    O673      1.36781      .   S
    C502   O673      1.36781      .   S
    C30    O674      1.40696      .   S
    C536   O674      1.40696      .   S
    C31    O675      1.40695      .   S
    C537   O675      1.40695      .   S
    C438   O676      1.36781      .   S
    C28    O676      1.36781      .   S
    C439   O677      1.36790      .   S
    C29    O677      1.36790      .   S
    C540   O678      0.63160      .   S
    C382   O678      0.63160      .   S
    C541   O679      0.63159      .   S
    C383   O679      0.63159      .   S
    C472   O680      1.40695      .   S
    C14    O680      1.40695      .   S
    C473   O681      1.40695      .   S
    C15    O681      1.40695      .   S
    C398   O682      0.73568      .   S
    C301   O682      0.73568      .   S
    C399   O683      0.73575      .   S
    C300   O683      0.73575  1_455   S
    C441   O684      0.63624      .   S
    C259   O684      0.63624      .   S
    C440   O685      0.63623      .   S
    C258   O685      0.63623      .   S
    C368   O686      0.76574      .   S
    C366   O686      0.76574      .   S
    C369   O687      0.76573      .   S
    C367   O687      0.76573      .   S
    C259   O688      0.63751      .   S
    C443   O688      0.63751      .   S
    C258   O689      0.63766      .   S
    C442   O689      0.63766      .   S
    C397   O690      0.73136      .   S
    C287   O690      0.73136  1_545   S
    C396   O691      0.73137      .   S
    C286   O691      0.73137  1_545   S
    C109   O692      0.55672      .   S
    C287   O692      0.55672      .   S
    C108   O693      0.55670      .   S
    C286   O693      0.55670      .   S
    C382   O694      0.77012      .   S
    C380   O694      0.77012      .   S
    C383   O695      0.77012      .   S
    C381   O695      0.77012      .   S
    C292   O696      0.63888      .   S
    C468   O696      0.63888      .   S
    C293   O697      0.63888      .   S
    C469   O697      0.63888      .   S
    C300   O698      0.54922  1_565   S
    C124   O698      0.54922  1_655   S
    C300   O699      0.76967      .   S
    C302   O699      0.76967      .   S
    C301   O700      0.54922  1_565   S
    C125   O700      0.54922      .   S
    C301   O701      0.76924      .   S
    C303   O701      0.76924      .   S
    C533   O702      0.63510      .   S
    C373   O702      0.63510      .   S
    C532   O703      0.63510      .   S
    C372   O703      0.63510      .   S
    C207   O704      0.54996      .   S
    C366   O704      0.54996  1_455   S
    C206   O705      0.54987      .   S
    C367   O705      0.54987      .   S
    C286   O706      0.54756  1_545   S
    C110   O706      0.54756      .   S
    C286   O707      0.76773      .   S
    C288   O707      0.76773      .   S
    C287   O708      0.54754  1_545   S
    C111   O708      0.54754      .   S
    C287   O709      0.76773      .   S
    C289   O709      0.76773      .   S
    C507   O710      0.63764      .   S
    C339   O710      0.63764      .   S
    C506   O711      0.63762      .   S
    C338   O711      0.63762      .   S
    C367   O712      0.55419      .   S
    C204   O712      0.55419      .   S
    C367   O713      0.73404      .   S
    C413   O713      0.73404      .   S
    C366   O714      0.55423  1_455   S
    C205   O714      0.55423      .   S
    C366   O715      0.73405      .   S
    C412   O715      0.73405      .   S
    C220   O716      0.54943      .   S
    C380   O716      0.54943      .   S
    C221   O717      0.54943      .   S
    C381   O717      0.54943      .   S
    C380   O718      0.73568      .   S
    C414   O718      0.73568      .   S
    C380   O719      0.55483      .   S
    C222   O719      0.55483      .   S
    C381   O720      0.73567      .   S
    C415   O720      0.73567      .   S
    C381   O721      0.55483      .   S
    C223   O721      0.55483      .   S
    C217   O722      0.54831      .   S
    C377   O722      0.54831      .   S
    C216   O723      0.54830      .   S
    C376   O723      0.54830      .   S
    C373   O724      0.63348      .   S
    C535   O724      0.63348      .   S
    C373   O725      0.77019      .   S
    C370   O725      0.77019  1_455   S
    C372   O726      0.63348      .   S
    C534   O726      0.63348      .   S
    C372   O727      0.77012      .   S
    C371   O727      0.77012      .   S
    C303   O728      0.63178      .   S
    C477   O728      0.63178  1_545   S
    C303   O729      0.63959      .   S
    C479   O729      0.63959      .   S
    C302   O730      0.63164      .   S
    C476   O730      0.63164  1_545   S
    C302   O731      0.63934      .   S
    C478   O731      0.63934      .   S
    C413   O732      0.73400      .   S
    C371   O732      0.73400      .   S
    C413   O733      0.73700      .   S
    C365   O733      0.73700      .   S
    C412   O734      0.73399      .   S
    C370   O734      0.73399      .   S
    C412   O735      0.73700      .   S
    C364   O735      0.73700      .   S
    C339   O736      0.63624      .   S
    C505   O736      0.63624      .   S
    C339   O737      0.76575      .   S
    C337   O737      0.76575      .   S
    C338   O738      0.63624      .   S
    C504   O738      0.63624      .   S
    C338   O739      0.76525      .   S
    C336   O739      0.76525      .   S
    C288   O740      0.63963      .   S
    C466   O740      0.63963      .   S
    C288   O741      0.63345      .   S
    C464   O741      0.63345      .   S
    C289   O742      0.63961      .   S
    C467   O742      0.63961      .   S
    C289   O743      0.63342      .   S
    C465   O743      0.63342      .   S
    C505   O744      1.40695      .   S
    C23    O744      1.40695      .   S
    C504   O745      1.40702      .   S
    C22    O745      1.40702      .   S
    C415   O746      0.73333      .   S
    C377   O746      0.73333      .   S
    C415   O747      0.73675      .   S
    C375   O747      0.73675      .   S
    C414   O748      0.73333      .   S
    C376   O748      0.73333      .   S
    C414   O749      0.73676      .   S
    C374   O749      0.73676      .   S
    C536   O750      0.63626      .   S
    C378   O750      0.63626      .   S
    C537   O751      0.63624      .   S
    C379   O751      0.63624      .   S
    C203   O752      0.54943      .   S
    C365   O752      0.54943      .   S
    C202   O753      0.54943      .   S
    C364   O753      0.54943      .   S
    C502   O754      0.63158      .   S
    C332   O754      0.63158      .   S
    C503   O755      0.63152      .   S
    C333   O755      0.63152      .   S
    C14    O756      1.40435      .   S
    C464   O756      1.40435  1_545   S
    C15    O757      1.40433      .   S
    C465   O757      1.40433  1_545   S
    C28    O758      1.37551      .   S
    C466   O758      1.37551      .   S
    C29    O759      1.37551      .   S
    C467   O759      1.37551      .   S
    C376   O760      0.76571      .   S
    C378   O760      0.76571      .   S
    C376   O761      0.55407      .   S
    C218   O761      0.55407      .   S
    C377   O762      0.76571      .   S
    C379   O762      0.76571      .   S
    C377   O763      0.55406      .   S
    C219   O763      0.55406      .   S
    C534   O764      1.36790      .   S
    C4     O764      1.36790      .   S
    C535   O765      1.36776      .   S
    C5     O765      1.36776      .   S
    C379   O766      0.63765      .   S
    C539   O766      0.63765      .   S
    C378   O767      0.63762      .   S
    C538   O767      0.63762      .   S
    C371   O768      0.55459      .   S
    C208   O768      0.55459      .   S
    C371   O769      0.54899      .   S
    C211   O769      0.54899      .   S
    C370   O770      0.55468  1_455   S
    C209   O770      0.55468      .   S
    C370   O771      0.54898      .   S
    C210   O771      0.54898      .   S
    C364   O772      0.76040      .   S
    C374   O772      0.76040      .   S
    C364   O773      0.55559      .   S
    C200   O773      0.55559      .   S
    C365   O774      0.76041      .   S
    C375   O774      0.76041      .   S
    C365   O775      0.55559      .   S
    C201   O775      0.55559      .   S
    C500   O776      0.63896      .   S
    C332   O776      0.63896      .   S
    C501   O777      0.63895      .   S
    C333   O777      0.63895      .   S
    C333   O778      0.76803      .   S
    C330   O778      0.76803  1_455   S
    C332   O779      0.76791      .   S
    C331   O779      0.76791      .   S
    C169   O780      0.54833      .   S
    C337   O780      0.54833      .   S
    C168   O781      0.54823      .   S
    C336   O781      0.54823      .   S
    C5     O782      1.37575      .   S
    C482   O782      1.37575  1_455   S
    C4     O783      1.37551      .   S
    C483   O783      1.37551      .   S
    C374   O784      0.54845      .   S
    C214   O784      0.54845      .   S
    C374   O785      0.55546      .   S
    C212   O785      0.55546      .   S
    C375   O786      0.54845      .   S
    C215   O786      0.54845      .   S
    C375   O787      0.55545      .   S
    C213   O787      0.55545      .   S
    C336   O788      0.55414      .   S
    C170   O788      0.55414      .   S
    C336   O789      0.73380      .   S
    C406   O789      0.73380      .   S
    C337   O790      0.55410      .   S
    C171   O790      0.55410      .   S
    C337   O791      0.73332      .   S
    C407   O791      0.73332      .   S
    C163   O792      0.54899      .   S
    C331   O792      0.54899      .   S
    C162   O793      0.54899      .   S
    C330   O793      0.54899      .   S
    C23    O794      1.40454      .   S
    C497   O794      1.40454      .   S
    C22    O795      1.40455      .   S
    C496   O795      1.40455      .   S
    C167   O796      0.54849      .   S
    C335   O796      0.54849      .   S
    C166   O797      0.54850      .   S
    C334   O797      0.54850      .   S
    C331   O798      0.55467      .   S
    C160   O798      0.55467      .   S
    C331   O799      0.73404      .   S
    C405   O799      0.73404      .   S
    C330   O800      0.55474  1_455   S
    C161   O800      0.55474      .   S
    C330   O801      0.73403      .   S
    C404   O801      0.73403      .   S
    C482   O802      0.64001      .   S
    C308   O802      0.64001      .   S
    C483   O803      0.63967      .   S
    C309   O803      0.63967      .   S
    C510   O804      0.63936      .   S
    C342   O804      0.63936      .   S
    C511   O805      0.63939      .   S
    C343   O805      0.63939      .   S
    C406   O806      0.73670      .   S
    C334   O806      0.73670      .   S
    C406   O807      0.73567      .   S
    C340   O807      0.73567      .   S
    C407   O808      0.73669      .   S
    C335   O808      0.73669      .   S
    C407   O809      0.73563      .   S
    C341   O809      0.73563      .   S
    C335   O810      0.55545      .   S
    C165   O810      0.55545      .   S
    C335   O811      0.75997      .   S
    C325   O811      0.75997      .   S
    C334   O812      0.55545      .   S
    C164   O812      0.55545      .   S
    C334   O813      0.76040      .   S
    C324   O813      0.76040      .   S
    C405   O814      0.73665      .   S
    C325   O814      0.73665      .   S
    C405   O815      0.73399      .   S
    C327   O815      0.73399      .   S
    C404   O816      0.73701      .   S
    C324   O816      0.73701      .   S
    C404   O817      0.73403      .   S
    C326   O817      0.73403      .   S
    C309   O818      0.63343      .   S
    C481   O818      0.63343      .   S
    C309   O819      0.76573      .   S
    C307   O819      0.76573      .   S
    C308   O820      0.63342      .   S
    C480   O820      0.63342      .   S
    C308   O821      0.76574      .   S
    C306   O821      0.76574      .   S
    C132   O822      0.55422      .   S
    C307   O822      0.55422      .   S
    C133   O823      0.55427      .   S
    C306   O823      0.55427  1_455   S
    C342   O824      0.76965      .   S
    C340   O824      0.76965      .   S
    C342   O825      0.63175      .   S
    C508   O825      0.63175      .   S
    C343   O826      0.76963      .   S
    C341   O826      0.76963      .   S
    C343   O827      0.63172      .   S
    C509   O827      0.63172      .   S
    C130   O828      0.54936      .   S
    C304   O828      0.54936      .   S
    C131   O829      0.54935      .   S
    C305   O829      0.54935      .   S
    C159   O830      0.54956      .   S
    C326   O830      0.54956  1_455   S
    C158   O831      0.54940      .   S
    C327   O831      0.54940      .   S
    C149   O832      0.54946      .   S
    C321   O832      0.54946      .   S
    C148   O833      0.54929      .   S
    C320   O833      0.54929      .   S
    C341   O834      0.55485      .   S
    C175   O834      0.55485      .   S
    C341   O835      0.54946      .   S
    C173   O835      0.54946      .   S
    C340   O836      0.55484      .   S
    C174   O836      0.55484      .   S
    C340   O837      0.54937      .   S
    C172   O837      0.54937      .   S
    C480   O838      1.40454      .   S
    C18    O838      1.40454      .   S
    C481   O839      1.40454      .   S
    C19    O839      1.40454      .   S
    C325   O840      0.55583      .   S
    C153   O840      0.55583      .   S
    C325   O841      0.54927      .   S
    C155   O841      0.54927      .   S
    C324   O842      0.55555      .   S
    C152   O842      0.55555      .   S
    C324   O843      0.54865      .   S
    C154   O843      0.54865      .   S
    C493   O844      0.63173      .   S
    C323   O844      0.63173      .   S
    C492   O845      0.63173      .   S
    C322   O845      0.63173      .   S
    C128   O846      0.55558      .   S
    C304   O846      0.55558      .   S
    C129   O847      0.55558      .   S
    C305   O847      0.55558      .   S
    C306   O848      0.54950  1_455   S
    C135   O848      0.54950      .   S
    C306   O849      0.73352      .   S
    C400   O849      0.73352      .   S
    C307   O850      0.54917      .   S
    C134   O850      0.54917      .   S
    C307   O851      0.73399      .   S
    C401   O851      0.73399      .   S
    C327   O852      0.55368      .   S
    C156   O852      0.55368      .   S
    C327   O853      0.76574      .   S
    C329   O853      0.76574      .   S
    C326   O854      0.55424  1_455   S
    C157   O854      0.55424      .   S
    C326   O855      0.76573      .   S
    C328   O855      0.76573      .   S
    C304   O856      0.73663      .   S
    C400   O856      0.73663      .   S
    C304   O857      0.76036      .   S
    C314   O857      0.76036      .   S
    C305   O858      0.73698      .   S
    C401   O858      0.73698      .   S
    C305   O859      0.76036      .   S
    C315   O859      0.76036      .   S
    C150   O860      0.55481      .   S
    C320   O860      0.55481      .   S
    C151   O861      0.55485      .   S
    C321   O861      0.55485      .   S
    C497   O862      0.63343      .   S
    C329   O862      0.63343      .   S
    C496   O863      0.63342      .   S
    C328   O863      0.63342      .   S
    C320   O864      0.76966      .   S
    C322   O864      0.76966      .   S
    C320   O865      0.73577      .   S
    C402   O865      0.73577      .   S
    C321   O866      0.76963      .   S
    C323   O866      0.76963      .   S
    C321   O867      0.73562      .   S
    C403   O867      0.73562      .   S
    C141   O868      0.55544      .   S
    C315   O868      0.55544      .   S
    C140   O869      0.55546      .   S
    C314   O869      0.55546      .   S
    C323   O870      0.63938      .   S
    C495   O870      0.63938      .   S
    C322   O871      0.63937      .   S
    C494   O871      0.63937      .   S
    C329   O872      0.63966      .   S
    C499   O872      0.63966      .   S
    C328   O873      0.63905      .   S
    C498   O873      0.63905      .   S
    C400   O874      0.73448      .   S
    C310   O874      0.73448      .   S
    C401   O875      0.73404      .   S
    C311   O875      0.73404      .   S
    C315   O876      0.73670      .   S
    C403   O876      0.73670      .   S
    C315   O877      0.54849      .   S
    C143   O877      0.54849      .   S
    C314   O878      0.73669      .   S
    C402   O878      0.73669      .   S
    C314   O879      0.54849      .   S
    C142   O879      0.54849      .   S
    C136   O880      0.55467      .   S
    C311   O880      0.55467      .   S
    C137   O881      0.55475      .   S
    C310   O881      0.55475  1_455   S
    C402   O882      0.73332      .   S
    C316   O882      0.73332      .   S
    C403   O883      0.73292      .   S
    C317   O883      0.73292      .   S
    C498   O884      1.37584  1_455   S
    C1     O884      1.37584      .   S
    C499   O885      1.37551      .   S
    C0     O885      1.37551      .   S
    C310   O886      0.54900      .   S
    C138   O886      0.54900      .   S
    C310   O887      0.76803  1_455   S
    C313   O887      0.76803      .   S
    C311   O888      0.54899      .   S
    C139   O888      0.54899      .   S
    C311   O889      0.76797      .   S
    C312   O889      0.76797      .   S
    C188   O890      0.55551      .   S
    C354   O890      0.55551      .   S
    C189   O891      0.55552      .   S
    C355   O891      0.55552      .   S
    C190   O892      0.54849      .   S
    C354   O892      0.54849      .   S
    C191   O893      0.54850      .   S
    C355   O893      0.54850      .   S
    C176   O894      0.55586      .   S
    C344   O894      0.55586      .   S
    C177   O895      0.55585      .   S
    C345   O895      0.55585      .   S
    C18    O896      1.40653      .   S
    C488   O896      1.40653      .   S
    C19    O897      1.40697      .   S
    C489   O897      1.40697      .   S
    C195   O898      0.55405      .   S
    C357   O898      0.55405      .   S
    C194   O899      0.55403      .   S
    C356   O899      0.55403      .   S
    C146   O900      0.55410      .   S
    C316   O900      0.55410      .   S
    C147   O901      0.55404      .   S
    C317   O901      0.55404      .   S
    C187   O902      0.54903      .   S
    C351   O902      0.54903      .   S
    C186   O903      0.54902      .   S
    C350   O903      0.54902      .   S
    C185   O904      0.55474      .   S
    C350   O904      0.55474  1_455   S
    C184   O905      0.55466      .   S
    C351   O905      0.55466      .   S
    C317   O906      0.54840      .   S
    C145   O906      0.54840      .   S
    C317   O907      0.76616      .   S
    C319   O907      0.76616      .   S
    C316   O908      0.54823      .   S
    C144   O908      0.54823      .   S
    C316   O909      0.76575      .   S
    C318   O909      0.76575      .   S
    C355   O910      0.76039      .   S
    C345   O910      0.76039      .   S
    C355   O911      0.73665      .   S
    C411   O911      0.73665      .   S
    C354   O912      0.76039      .   S
    C344   O912      0.76039      .   S
    C354   O913      0.73666      .   S
    C410   O913      0.73666      .   S
    C1     O914      1.36790      .   S
    C519   O914      1.36790      .   S
    C0     O915      1.36786      .   S
    C518   O915      1.36786      .   S
    C313   O916      0.63895      .   S
    C485   O916      0.63895      .   S
    C313   O917      0.63153      .   S
    C487   O917      0.63153      .   S
    C312   O918      0.63895      .   S
    C484   O918      0.63895      .   S
    C312   O919      0.63152      .   S
    C486   O919      0.63152      .   S
    C522   O920      0.63764      .   S
    C358   O920      0.63764      .   S
    C523   O921      0.63764      .   S
    C359   O921      0.63764      .   S
    C344   O922      0.54936      .   S
    C178   O922      0.54936      .   S
    C344   O923      0.73701      .   S
    C408   O923      0.73701      .   S
    C345   O924      0.54937      .   S
    C179   O924      0.54937      .   S
    C345   O925      0.73701      .   S
    C409   O925      0.73701      .   S
    C350   O926      0.73398      .   S
    C408   O926      0.73398      .   S
    C350   O927      0.76802  1_455   S
    C353   O927      0.76802      .   S
    C351   O928      0.73397      .   S
    C409   O928      0.73397      .   S
    C351   O929      0.76796      .   S
    C352   O929      0.76796      .   S
    C462   O930      0.63901      .   S
    C282   O930      0.63901      .   S
    C463   O931      0.63901      .   S
    C283   O931      0.63901      .   S
    C359   O932      0.76570      .   S
    C357   O932      0.76570      .   S
    C359   O933      0.63625      .   S
    C521   O933      0.63625      .   S
    C358   O934      0.76571      .   S
    C356   O934      0.76571      .   S
    C358   O935      0.63624      .   S
    C520   O935      0.63624      .   S
    C519   O936      0.63153      .   S
    C353   O936      0.63153      .   S
    C518   O937      0.63153      .   S
    C352   O937      0.63153      .   S
    C357   O938      0.73334      .   S
    C411   O938      0.73334      .   S
    C357   O939      0.54830      .   S
    C193   O939      0.54830      .   S
    C356   O940      0.73334      .   S
    C410   O940      0.73334      .   S
    C356   O941      0.54832      .   S
    C192   O941      0.54832      .   S
    C448   O942      1.40440  1_565   S
    C10    O942      1.40440      .   S
    C448   O943      0.63345      .   S
    C268   O943      0.63345      .   S
    C449   O944      1.40433  1_565   S
    C11    O944      1.40433      .   S
    C449   O945      0.63342      .   S
    C269   O945      0.63342      .   S
    C451   O946      1.37552      .   S
    C25    O946      1.37552      .   S
    C451   O947      0.63961      .   S
    C269   O947      0.63961      .   S
    C450   O948      1.37553      .   S
    C24    O948      1.37553      .   S
    C450   O949      0.63961      .   S
    C268   O949      0.63961      .   S
    C198   O950      0.55483      .   S
    C360   O950      0.55483      .   S
    C199   O951      0.55482      .   S
    C361   O951      0.55482      .   S
    C24    O952      1.36790      .   S
    C422   O952      1.36790      .   S
    C25    O953      1.36790      .   S
    C423   O953      1.36790      .   S
    C11    O954      1.40704      .   S
    C457   O954      1.40704      .   S
    C10    O955      1.40696      .   S
    C456   O955      1.40696      .   S
    C486   O956      1.36789      .   S
    C8     O956      1.36789      .   S
    C487   O957      1.36790      .   S
    C9     O957      1.36790      .   S
    C461   O958      0.63137  1_565   S
    C283   O958      0.63137      .   S
    C460   O959      0.63138  1_565   S
    C282   O959      0.63138      .   S
    C520   O960      1.40703      .   S
    C26    O960      1.40703      .   S
    C521   O961      1.40695      .   S
    C27    O961      1.40695      .   S
    C411   O962      0.73570      .   S
    C361   O962      0.73570      .   S
    C410   O963      0.73569      .   S
    C360   O963      0.73569      .   S
    C488   O964      0.63624      .   S
    C318   O964      0.63624      .   S
    C489   O965      0.63624      .   S
    C319   O965      0.63624      .   S
    C268   O966      0.76559      .   S
    C266   O966      0.76559      .   S
    C269   O967      0.76558      .   S
    C267   O967      0.76558      .   S
    C318   O968      0.63766      .   S
    C490   O968      0.63766      .   S
    C319   O969      0.63766      .   S
    C491   O969      0.63766      .   S
    C408   O970      0.73404      .   S
    C346   O970      0.73404      .   S
    C409   O971      0.73403      .   S
    C347   O971      0.73403      .   S
    C181   O972      0.55429      .   S
    C346   O972      0.55429  1_455   S
    C180   O973      0.55418      .   S
    C347   O973      0.55418      .   S
    C283   O974      0.77021      .   S
    C281   O974      0.77021      .   S
    C282   O975      0.77020      .   S
    C280   O975      0.77020      .   S
    C353   O976      0.63888      .   S
    C517   O976      0.63888      .   S
    C352   O977      0.63888      .   S
    C516   O977      0.63888      .   S
    C360   O978      0.54943      .   S
    C196   O978      0.54943      .   S
    C360   O979      0.76914      .   S
    C362   O979      0.76914      .   S
    C361   O980      0.54943      .   S
    C197   O980      0.54943      .   S
    C361   O981      0.76967      .   S
    C363   O981      0.76967      .   S
    C452   O982      0.63897      .   S
    C272   O982      0.63897      .   S
    C453   O983      0.63888      .   S
    C273   O983      0.63888      .   S
    C87    O984      0.54945      .   S
    C267   O984      0.54945  1_565   S
    C86    O985      0.54945      .   S
    C266   O985      0.54945  1_565   S
    C347   O986      0.54946      .   S
    C182   O986      0.54946      .   S
    C347   O987      0.76573      .   S
    C349   O987      0.76573      .   S
    C346   O988      0.54951  1_455   S
    C183   O988      0.54951      .   S
    C346   O989      0.76573      .   S
    C348   O989      0.76573      .   S
    C427   O990      0.63764      .   S
    C239   O990      0.63764      .   S
    C426   O991      0.63764      .   S
    C238   O991      0.63764      .   S
    C266   O992      0.55408      .   S
    C84    O992      0.55408      .   S
    C266   O993      0.73404  1_565   S
    C392   O993      0.73404      .   S
    C267   O994      0.55415      .   S
    C85    O994      0.55415      .   S
    C267   O995      0.73403  1_565   S
    C393   O995      0.73403      .   S
    C101   O996      0.54931      .   S
    C281   O996      0.54931  1_545   S
    C100   O997      0.54931  1_655   S
    C280   O997      0.54931  1_545   S
    C281   O998      0.73567      .   S
    C394   O998      0.73567      .   S
    C281   O999      0.55483      .   S
    C103   O999      0.55483      .   S
    C280   O1000     0.73576  1_455   S
    C395   O1000     0.73576      .   S
    C280   O1001     0.55484      .   S
    C102   O1001     0.55484      .   S
    C97    O1002     0.54829      .   S
    C277   O1002     0.54829      .   S
    C96    O1003     0.54832      .   S
    C276   O1003     0.54832      .   S
    C273   O1004     0.63153      .   S
    C455   O1004     0.63153      .   S
    C273   O1005     0.76801      .   S
    C271   O1005     0.76801      .   S
    C272   O1006     0.63149      .   S
    C454   O1006     0.63149      .   S
    C272   O1007     0.76796      .   S
    C270   O1007     0.76796      .   S
    C362   O1008     0.63189      .   S
    C524   O1008     0.63189      .   S
    C362   O1009     0.63965      .   S
    C526   O1009     0.63965      .   S
    C363   O1010     0.63173      .   S
    C525   O1010     0.63173      .   S
    C363   O1011     0.63932      .   S
    C527   O1011     0.63932      .   S
    C392   O1012     0.73399      .   S
    C270   O1012     0.73399      .   S
    C392   O1013     0.73700      .   S
    C264   O1013     0.73700      .   S
    C393   O1014     0.73402      .   S
    C271   O1014     0.73402      .   S
    C393   O1015     0.73701      .   S
    C265   O1015     0.73701      .   S
    C239   O1016     0.63624      .   S
    C425   O1016     0.63624      .   S
    C239   O1017     0.76581      .   S
    C236   O1017     0.76581  1_455   S
    C238   O1018     0.63625      .   S
    C424   O1018     0.63625      .   S
    C238   O1019     0.76575      .   S
    C237   O1019     0.76575      .   S
    C349   O1020     0.63962      .   S
    C515   O1020     0.63962      .   S
    C349   O1021     0.63342      .   S
    C513   O1021     0.63342      .   S
    C348   O1022     0.63959      .   S
    C514   O1022     0.63959      .   S
    C348   O1023     0.63343      .   S
    C512   O1023     0.63343      .   S
    C424   O1024     1.40694      .   S
    C2     O1024     1.40694      .   S
    C425   O1025     1.40697      .   S
    C3     O1025     1.40697      .   S
    C394   O1026     0.73333      .   S
    C277   O1026     0.73333      .   S
    C394   O1027     0.73675      .   S
    C274   O1027     0.73675      .   S
    C395   O1028     0.73339      .   S
    C276   O1028     0.73339  1_455   S
    C395   O1029     0.73606      .   S
    C275   O1029     0.73606      .   S
    C456   O1030     0.63624      .   S
    C278   O1030     0.63624      .   S
    C457   O1031     0.63623      .   S
    C279   O1031     0.63623      .   S
    C83    O1032     0.54928      .   S
    C265   O1032     0.54928  1_545   S
    C82    O1033     0.54914      .   S
    C264   O1033     0.54914  1_545   S
    C423   O1034     0.63157      .   S
    C233   O1034     0.63157      .   S
    C422   O1035     0.63112      .   S
    C232   O1035     0.63112      .   S
    C26    O1036     1.40450      .   S
    C512   O1036     1.40450      .   S
    C27    O1037     1.40454      .   S
    C513   O1037     1.40454      .   S
    C8     O1038     1.37551      .   S
    C515   O1038     1.37551      .   S
    C9     O1039     1.37564      .   S
    C514   O1039     1.37564  1_455   S
    C276   O1040     0.76578  1_455   S
    C279   O1040     0.76578      .   S
    C276   O1041     0.55404      .   S
    C98    O1041     0.55404      .   S
    C277   O1042     0.76572      .   S
    C278   O1042     0.76572      .   S
    C277   O1043     0.55408      .   S
    C99    O1043     0.55408      .   S
    C454   O1044     1.36791      .   S
    C16    O1044     1.36791      .   S
    C455   O1045     1.36771      .   S
    C17    O1045     1.36771      .   S
    C279   O1046     0.63577      .   S
    C459   O1046     0.63577      .   S
    C278   O1047     0.63760      .   S
    C458   O1047     0.63760      .   S
    C270   O1048     0.55460      .   S
    C88    O1048     0.55460      .   S
    C270   O1049     0.54898      .   S
    C90    O1049     0.54898      .   S
    C271   O1050     0.55460      .   S
    C89    O1050     0.55460      .   S
    C271   O1051     0.54897      .   S
    C91    O1051     0.54897      .   S
    C265   O1052     0.76017      .   S
    C275   O1052     0.76017      .   S
    C265   O1053     0.55557      .   S
    C81    O1053     0.55557  1_565   S
    C264   O1054     0.76040      .   S
    C274   O1054     0.76040      .   S
    C264   O1055     0.55556      .   S
    C80    O1055     0.55556  1_565   S
    C421   O1056     0.63896      .   S
    C233   O1056     0.63896      .   S
    C420   O1057     0.63893      .   S
    C232   O1057     0.63893      .   S
    C232   O1058     0.76790      .   S
    C230   O1058     0.76790      .   S
    C233   O1059     0.76737      .   S
    C231   O1059     0.76737      .   S
    C48    O1060     0.54833      .   S
    C236   O1060     0.54833      .   S
    C49    O1061     0.54832      .   S
    C237   O1061     0.54832      .   S
    C17    O1062     1.37563      .   S
    C435   O1062     1.37563      .   S
    C16    O1063     1.37549      .   S
    C434   O1063     1.37549      .   S
    C275   O1064     0.54885      .   S
    C95    O1064     0.54885      .   S
    C275   O1065     0.55605      .   S
    C93    O1065     0.55605      .   S
    C274   O1066     0.54846      .   S
    C94    O1066     0.54846      .   S
    C274   O1067     0.55546      .   S
    C92    O1067     0.55546      .   S
    C237   O1068     0.55410      .   S
    C51    O1068     0.55410      .   S
    C237   O1069     0.73332      .   S
    C386   O1069     0.73332      .   S
    C236   O1070     0.55411      .   S
    C50    O1070     0.55411      .   S
    C236   O1071     0.73338  1_455   S
    C387   O1071     0.73338      .   S
    C42    O1072     0.54857      .   S
    C230   O1072     0.54857      .   S
    C43    O1073     0.54857      .   S
    C231   O1073     0.54857      .   S
    C46    O1074     0.54848      .   S
    C234   O1074     0.54848      .   S
    C47    O1075     0.54848      .   S
    C235   O1075     0.54848      .   S
    C231   O1076     0.55504      .   S
    C41    O1076     0.55504      .   S
    C231   O1077     0.73455      .   S
    C385   O1077     0.73455      .   S
    C230   O1078     0.55504      .   S
    C40    O1078     0.55504      .   S
    C230   O1079     0.73455      .   S
    C384   O1079     0.73455      .   S
    C435   O1080     0.64010      .   S
    C249   O1080     0.64010      .   S
    C434   O1081     0.63966      .   S
    C248   O1081     0.63966      .   S
    C430   O1082     0.63938      .   S
    C242   O1082     0.63938      .   S
    C431   O1083     0.63938      .   S
    C243   O1083     0.63938      .   S
    C386   O1084     0.73669      .   S
    C234   O1084     0.73669      .   S
    C386   O1085     0.73563      .   S
    C241   O1085     0.73563      .   S
    C387   O1086     0.73669      .   S
    C235   O1086     0.73669      .   S
    C387   O1087     0.73570      .   S
    C240   O1087     0.73570  1_455   S
    C235   O1088     0.55546      .   S
    C45    O1088     0.55546      .   S
    C235   O1089     0.76042      .   S
    C225   O1089     0.76042      .   S
    C234   O1090     0.55546      .   S
    C44    O1090     0.55546      .   S
    C234   O1091     0.76042      .   S
    C224   O1091     0.76042      .   S
    C385   O1092     0.73702      .   S
    C225   O1092     0.73702      .   S
    C384   O1093     0.73702      .   S
    C224   O1093     0.73702      .   S
    C248   O1094     0.63343      .   S
    C432   O1094     0.63343      .   S
    C248   O1095     0.76567      .   S
    C246   O1095     0.76567      .   S
    C249   O1096     0.63342      .   S
    C433   O1096     0.63342      .   S
    C249   O1097     0.76566      .   S
    C247   O1097     0.76566      .   S
    C61    O1098     0.55408      .   S
    C247   O1098     0.55408      .   S
    C60    O1099     0.55406      .   S
    C246   O1099     0.55406      .   S
    C242   O1100     0.76963      .   S
    C240   O1100     0.76963      .   S
    C243   O1101     0.76963      .   S
    C241   O1101     0.76963      .   S
    C241   O1102     0.55485      .   S
    C55    O1102     0.55485      .   S
    C240   O1103     0.55485      .   S
    C54    O1103     0.55485      .   S
    C418   O1104     1.39974      .   S
    C12    O1104     1.39974      .   S
    C419   O1105     1.39597      .   S
    C13    O1105     1.39597      .   S
    C420   O1106     1.44674      .   S
    C2     O1106     1.44674      .   S
    C420   O1107     1.42004      .   S
    C26    O1107     1.42004      .   S
    C421   O1108     1.44672      .   S
    C3     O1108     1.44672      .   S
    C421   O1109     1.42003      .   S
    C27    O1109     1.42003      .   S
    C424   O1110     1.49198      .   S
    C0     O1110     1.49198      .   S
    C425   O1111     1.49208      .   S
    C1     O1111     1.49208      .   S
    C426   O1112     1.45446      .   S
    C0     O1112     1.45446      .   S
    C426   O1113     1.39021      .   S
    C25    O1113     1.39021      .   S
    C427   O1114     1.45454      .   S
    C1     O1114     1.45454      .   S
    C427   O1115     1.39031  1_655   S
    C24    O1115     1.39031      .   S
    C428   O1116     1.38263      .   S
    C20    O1116     1.38263      .   S
    C429   O1117     1.38263      .   S
    C21    O1117     1.38263      .   S
    C430   O1118     1.45273  1_455   S
    C3     O1118     1.45273      .   S
    C430   O1119     1.43040      .   S
    C26    O1119     1.43040      .   S
    C431   O1120     1.45259      .   S
    C2     O1120     1.45259      .   S
    C431   O1121     1.43041      .   S
    C27    O1121     1.43041      .   S
    C434   O1122     1.39969      .   S
    C8     O1122     1.39969      .   S
    C435   O1123     1.39935      .   S
    C9     O1123     1.39935      .   S
    C436   O1124     1.44674      .   S
    C6     O1124     1.44674      .   S
    C436   O1125     1.42000      .   S
    C30    O1125     1.42000      .   S
    C437   O1126     1.44673      .   S
    C7     O1126     1.44673      .   S
    C437   O1127     1.42000      .   S
    C31    O1127     1.42000      .   S
    C440   O1128     1.49198      .   S
    C4     O1128     1.49198      .   S
    C441   O1129     1.49129      .   S
    C5     O1129     1.49129      .   S
    C442   O1130     1.45445      .   S
    C4     O1130     1.45445      .   S
    C442   O1131     1.39021      .   S
    C29    O1131     1.39021      .   S
    C443   O1132     1.45413      .   S
    C5     O1132     1.45413      .   S
    C443   O1133     1.39037  1_655   S
    C28    O1133     1.39037      .   S
    C444   O1134     1.38253      .   S
    C16    O1134     1.38253      .   S
    C445   O1135     1.38340      .   S
    C17    O1135     1.38340      .   S
    C446   O1136     1.45272  1_455   S
    C7     O1136     1.45272      .   S
    C446   O1137     1.43042      .   S
    C30    O1137     1.43042      .   S
    C447   O1138     1.45260      .   S
    C6     O1138     1.45260      .   S
    C447   O1139     1.43043      .   S
    C31    O1139     1.43043      .   S
    C450   O1140     1.39973      .   S
    C0     O1140     1.39973      .   S
    C451   O1141     1.39973      .   S
    C1     O1141     1.39973      .   S
    C452   O1142     1.44677      .   S
    C10    O1142     1.44677      .   S
    C452   O1143     1.42002      .   S
    C18    O1143     1.42002      .   S
    C453   O1144     1.44671      .   S
    C11    O1144     1.44671      .   S
    C453   O1145     1.42004      .   S
    C19    O1145     1.42004      .   S
    C456   O1146     1.49198      .   S
    C8     O1146     1.49198      .   S
    C457   O1147     1.49199      .   S
    C9     O1147     1.49199      .   S
    C458   O1148     1.45447      .   S
    C8     O1148     1.45447      .   S
    C458   O1149     1.39019      .   S
    C17    O1149     1.39019      .   S
    C459   O1150     1.45341      .   S
    C9     O1150     1.45341      .   S
    C459   O1151     1.39045  1_655   S
    C16    O1151     1.39045      .   S
    C460   O1152     1.38258      .   S
    C24    O1152     1.38258      .   S
    C461   O1153     1.38256      .   S
    C25    O1153     1.38256      .   S
    C462   O1154     1.45274  1_455   S
    C11    O1154     1.45274      .   S
    C462   O1155     1.43040      .   S
    C18    O1155     1.43040      .   S
    C463   O1156     1.45257      .   S
    C10    O1156     1.45257      .   S
    C463   O1157     1.43043      .   S
    C19    O1157     1.43043      .   S
    C466   O1158     1.39971      .   S
    C4     O1158     1.39971      .   S
    C467   O1159     1.39953      .   S
    C5     O1159     1.39953      .   S
    C468   O1160     1.44674      .   S
    C14    O1160     1.44674      .   S
    C468   O1161     1.42005      .   S
    C22    O1161     1.42005      .   S
    C469   O1162     1.44674      .   S
    C15    O1162     1.44674      .   S
    C469   O1163     1.42002      .   S
    C23    O1163     1.42002      .   S
    C472   O1164     1.49200      .   S
    C12    O1164     1.49200      .   S
    C473   O1165     1.49249      .   S
    C13    O1165     1.49249      .   S
    C474   O1166     1.45454      .   S
    C12    O1166     1.45454      .   S
    C474   O1167     1.39021      .   S
    C21    O1167     1.39021      .   S
    C475   O1168     1.45317      .   S
    C13    O1168     1.45317      .   S
    C475   O1169     1.39030  1_655   S
    C20    O1169     1.39030      .   S
    C476   O1170     1.38258      .   S
    C28    O1170     1.38258      .   S
    C477   O1171     1.38258      .   S
    C29    O1171     1.38258      .   S
    C478   O1172     1.45273  1_455   S
    C15    O1172     1.45273      .   S
    C478   O1173     1.43038      .   S
    C22    O1173     1.43038      .   S
    C479   O1174     1.45260      .   S
    C14    O1174     1.45260      .   S
    C479   O1175     1.43042      .   S
    C23    O1175     1.43042      .   S
    C482   O1176     1.39948      .   S
    C28    O1176     1.39948      .   S
    C483   O1177     1.39967      .   S
    C29    O1177     1.39967      .   S
    C484   O1178     1.42000      .   S
    C10    O1178     1.42000      .   S
    C484   O1179     1.44673      .   S
    C19    O1179     1.44673      .   S
    C485   O1180     1.42004      .   S
    C11    O1180     1.42004      .   S
    C485   O1181     1.44685  1_655   S
    C18    O1181     1.44685      .   S
    C488   O1182     1.49286      .   S
    C16    O1182     1.49286      .   S
    C489   O1183     1.49119      .   S
    C17    O1183     1.49119      .   S
    C490   O1184     1.39023      .   S
    C8     O1184     1.39023      .   S
    C490   O1185     1.45453      .   S
    C16    O1185     1.45453      .   S
    C491   O1186     1.39021      .   S
    C9     O1186     1.39021      .   S
    C491   O1187     1.45393      .   S
    C17    O1187     1.45393      .   S
    C492   O1188     1.38263      .   S
    C4     O1188     1.38263      .   S
    C493   O1189     1.38330      .   S
    C5     O1189     1.38330      .   S
    C494   O1190     1.43043      .   S
    C10    O1190     1.43043      .   S
    C494   O1191     1.45260      .   S
    C18    O1191     1.45260      .   S
    C495   O1192     1.43040      .   S
    C11    O1192     1.43040      .   S
    C495   O1193     1.45261      .   S
    C19    O1193     1.45261      .   S
    C498   O1194     1.40012      .   S
    C24    O1194     1.40012      .   S
    C499   O1195     1.39968      .   S
    C25    O1195     1.39968      .   S
    C500   O1196     1.42001      .   S
    C14    O1196     1.42001      .   S
    C500   O1197     1.44674      .   S
    C23    O1197     1.44674      .   S
    C501   O1198     1.42002      .   S
    C15    O1198     1.42002      .   S
    C501   O1199     1.44679  1_655   S
    C22    O1199     1.44679      .   S
    C504   O1200     1.49197      .   S
    C20    O1200     1.49197      .   S
    C505   O1201     1.49198      .   S
    C21    O1201     1.49198      .   S
    C506   O1202     1.39023      .   S
    C12    O1202     1.39023      .   S
    C506   O1203     1.45453      .   S
    C20    O1203     1.45453      .   S
    C507   O1204     1.39271      .   S
    C13    O1204     1.39271      .   S
    C507   O1205     1.45446      .   S
    C21    O1205     1.45446      .   S
    C508   O1206     1.38263      .   S
    C0     O1206     1.38263      .   S
    C509   O1207     1.38253      .   S
    C1     O1207     1.38253      .   S
    C510   O1208     1.43041      .   S
    C14    O1208     1.43041      .   S
    C510   O1209     1.45266      .   S
    C22    O1209     1.45266      .   S
    C511   O1210     1.43042      .   S
    C15    O1210     1.43042      .   S
    C511   O1211     1.45258      .   S
    C23    O1211     1.45258      .   S
    C514   O1212     1.39975      .   S
    C16    O1212     1.39975      .   S
    C515   O1213     1.39951      .   S
    C17    O1213     1.39951      .   S
    C516   O1214     1.42002      .   S
    C2     O1214     1.42002      .   S
    C516   O1215     1.44673      .   S
    C27    O1215     1.44673      .   S
    C517   O1216     1.42003      .   S
    C3     O1216     1.42003      .   S
    C517   O1217     1.44681  1_655   S
    C26    O1217     1.44681      .   S
    C520   O1218     1.49199      .   S
    C24    O1218     1.49199      .   S
    C521   O1219     1.49199      .   S
    C25    O1219     1.49199      .   S
    C522   O1220     1.39026      .   S
    C0     O1220     1.39026      .   S
    C522   O1221     1.45452      .   S
    C24    O1221     1.45452      .   S
    C523   O1222     1.39021      .   S
    C1     O1222     1.39021      .   S
    C523   O1223     1.45450      .   S
    C25    O1223     1.45450      .   S
    C524   O1224     1.38258      .   S
    C8     O1224     1.38258      .   S
    C525   O1225     1.38256      .   S
    C9     O1225     1.38256      .   S
    C526   O1226     1.43041      .   S
    C2     O1226     1.43041      .   S
    C526   O1227     1.45263      .   S
    C26    O1227     1.45263      .   S
    C527   O1228     1.43041      .   S
    C3     O1228     1.43041      .   S
    C527   O1229     1.45260      .   S
    C27    O1229     1.45260      .   S
    C530   O1230     1.39970      .   S
    C20    O1230     1.39970      .   S
    C531   O1231     1.39971      .   S
    C21    O1231     1.39971      .   S
    C532   O1232     1.42004      .   S
    C6     O1232     1.42004      .   S
    C532   O1233     1.44673      .   S
    C31    O1233     1.44673      .   S
    C533   O1234     1.42003      .   S
    C7     O1234     1.42003      .   S
    C533   O1235     1.44686  1_655   S
    C30    O1235     1.44686      .   S
    C536   O1236     1.49198      .   S
    C28    O1236     1.49198      .   S
    C537   O1237     1.49200      .   S
    C29    O1237     1.49200      .   S
    C538   O1238     1.39021      .   S
    C4     O1238     1.39021      .   S
    C538   O1239     1.45454      .   S
    C28    O1239     1.45454      .   S
    C539   O1240     1.39019      .   S
    C5     O1240     1.39019      .   S
    C539   O1241     1.45452      .   S
    C29    O1241     1.45452      .   S
    C540   O1242     1.38256      .   S
    C12    O1242     1.38256      .   S
    C541   O1243     1.38289      .   S
    C13    O1243     1.38289      .   S
    C542   O1244     1.43040      .   S
    C6     O1244     1.43040      .   S
    C542   O1245     1.45261      .   S
    C30    O1245     1.45261      .   S
    C543   O1246     1.43040      .   S
    C7     O1246     1.43040      .   S
    C543   O1247     1.45260      .   S
    C31    O1247     1.45260      .   S
