# CIF file generated by openbabel 2.4.90, see http://openbabel.sf.net
data_I
_chemical_name_common ''
_cell_length_a 18.343
_cell_length_b 19.757
_cell_length_c 19.757
_cell_angle_alpha 90
_cell_angle_beta 90
_cell_angle_gamma 89.999
_space_group_name_H-M_alt 'P 1'
_space_group_name_Hall 'P 1'
loop_
    _symmetry_equiv_pos_as_xyz
    x,y,z
loop_
    _atom_site_label
    _atom_site_type_symbol
    _atom_site_fract_x
    _atom_site_fract_y
    _atom_site_fract_z
    _atom_site_occupancy
    Zr0     Zr   0.38345   0.81542   0.64744   1.000
    Zr1     Zr   0.88344   0.81542   0.64743   1.000
    Zr2     Zr   0.38264   0.68535   0.87615   1.000
    Zr3     Zr   0.88264   0.68535   0.87615   1.000
    Zr4     Zr   0.38345   0.18460   0.35257   1.000
    Zr5     Zr   0.88344   0.18460   0.35250   1.000
    Zr6     Zr   0.38264   0.31467   0.12386   1.000
    Zr7     Zr   0.88264   0.31467   0.12386   1.000
    Zr8     Zr   0.38345   0.35258   0.81542   1.000
    Zr9     Zr   0.88344   0.35258   0.81542   1.000
    Zr10    Zr   0.38265   0.12386   0.68535   1.000
    Zr11    Zr   0.88264   0.12386   0.68535   1.000
    Zr12    Zr   0.38344   0.64744   0.18460   1.000
    Zr13    Zr   0.88344   0.64744   0.18400   1.000
    Zr14    Zr   0.38264   0.87616   0.31466   1.000
    Zr15    Zr   0.88263   0.87616   0.31466   1.000
    Zr16    Zr   0.13345   0.31541   0.85259   1.000
    Zr17    Zr   0.63345   0.31541   0.85250   1.000
    Zr18    Zr   0.13265   0.18534   0.62387   1.000
    Zr19    Zr   0.63264   0.18534   0.62387   1.000
    Zr20    Zr   0.13345   0.68461   0.14743   1.000
    Zr21    Zr   0.63344   0.68461   0.14743   1.000
    Zr22    Zr   0.13264   0.81468   0.37614   1.000
    Zr23    Zr   0.63264   0.81468   0.37614   1.000
    Zr24    Zr   0.13345   0.85259   0.68460   1.000
    Zr25    Zr   0.63344   0.85259   0.68460   1.000
    Zr26    Zr   0.13264   0.62387   0.81467   1.000
    Zr27    Zr   0.63264   0.62387   0.81467   1.000
    Zr28    Zr   0.13345   0.14743   0.31540   1.000
    Zr29    Zr   0.63344   0.14743   0.31541   1.000
    Zr30    Zr   0.13265   0.37615   0.18534   1.000
    Zr31    Zr   0.63264   0.37615   0.18534   1.000
    N32     N    0.88827   0.20557   0.06566   1.000
    O33     O    0.77183   0.18400   0.15831   1.000
    O34     O    0.91413   0.18657   0.18473   1.000
    O35     O    0.97663   0.17727   0.17545   1.000
    O36     O    0.79553   0.26086   0.97233   1.000
    O37     O    0.85803   0.27016   0.96306   1.000
    O38     O    0.00252   0.25868   0.99320   1.000
    O39     O    0.84842   0.24972   0.10186   1.000
    O40     O    0.78593   0.26509   0.11723   1.000
    O41     O    0.88028   0.26148   0.05957   1.000
    O42     O    0.88983   0.23077   0.11451   1.000
    O43     O    0.89003   0.19826   0.17167   1.000
    O44     O    0.92351   0.26281   0.08494   1.000
    O45     O    0.98601   0.27818   0.10031   1.000
    N46     N    0.38827   0.79445   0.93432   1.000
    O47     O    0.38028   0.73854   0.94042   1.000
    O48     O    0.38983   0.76925   0.88548   1.000
    O49     O    0.39003   0.80176   0.82831   1.000
    O50     O    0.42351   0.73721   0.91505   1.000
    O51     O    0.48600   0.72184   0.89968   1.000
    O52     O    0.27183   0.81602   0.84169   1.000
    O53     O    0.41413   0.81345   0.81524   1.000
    O54     O    0.47663   0.82274   0.82453   1.000
    O55     O    0.29553   0.73916   0.02763   1.000
    O56     O    0.35803   0.72987   0.03693   1.000
    O57     O    0.50251   0.74134   0.00680   1.000
    O58     O    0.34843   0.75030   0.89814   1.000
    O59     O    0.28593   0.73493   0.88277   1.000
    N60     N    0.88827   0.93434   0.20556   1.000
    O61     O    0.91412   0.81525   0.18641   1.000
    O62     O    0.97662   0.82455   0.17727   1.000
    O63     O    0.88982   0.88549   0.23077   1.000
    O64     O    0.89002   0.82832   0.19810   1.000
    O65     O    0.77183   0.84170   0.18399   1.000
    O66     O    0.92350   0.91507   0.26281   1.000
    O67     O    0.98600   0.89970   0.27818   1.000
    O68     O    0.79553   0.02764   0.26086   1.000
    O69     O    0.85803   0.03693   0.27013   1.000
    O70     O    0.84842   0.89815   0.24971   1.000
    O71     O    0.78592   0.88278   0.26508   1.000
    O72     O    0.00252   0.00681   0.25867   1.000
    O73     O    0.88028   0.94044   0.26148   1.000
    N74     N    0.63827   0.56567   0.70558   1.000
    O75     O    0.52183   0.65832   0.68400   1.000
    O76     O    0.53593   0.61724   0.76510   1.000
    O77     O    0.59842   0.60187   0.74973   1.000
    O78     O    0.54553   0.47237   0.76087   1.000
    O79     O    0.60803   0.46308   0.77014   1.000
    O80     O    0.73600   0.60033   0.77819   1.000
    O81     O    0.67350   0.58496   0.76282   1.000
    O82     O    0.75251   0.49320   0.75869   1.000
    O83     O    0.63983   0.61453   0.73078   1.000
    O84     O    0.64003   0.67171   0.69826   1.000
    O85     O    0.72662   0.67548   0.67728   1.000
    O86     O    0.66412   0.68477   0.68657   1.000
    O87     O    0.63028   0.55958   0.76149   1.000
    N88     N    0.63827   0.70558   0.43433   1.000
    O89     O    0.72662   0.67729   0.32439   1.000
    O90     O    0.66412   0.68658   0.31524   1.000
    O91     O    0.52183   0.68401   0.34169   1.000
    O92     O    0.63028   0.76149   0.44043   1.000
    O93     O    0.53592   0.76510   0.38277   1.000
    O94     O    0.59842   0.74973   0.39814   1.000
    O95     O    0.75251   0.75869   0.50681   1.000
    O96     O    0.54553   0.76087   0.52764   1.000
    O97     O    0.60803   0.77016   0.53693   1.000
    O98     O    0.63983   0.73078   0.38548   1.000
    O99     O    0.64003   0.69827   0.32831   1.000
    O100    O    0.73600   0.77819   0.39968   1.000
    O101    O    0.67350   0.76283   0.41505   1.000
    N102    N    0.38827   0.93434   0.20556   1.000
    O103    O    0.41413   0.81525   0.18656   1.000
    O104    O    0.47662   0.82455   0.17727   1.000
    O105    O    0.38983   0.88549   0.23076   1.000
    O106    O    0.39003   0.82832   0.19825   1.000
    O107    O    0.38028   0.94044   0.26147   1.000
    O108    O    0.42350   0.91507   0.26280   1.000
    O109    O    0.48600   0.89970   0.27817   1.000
    O110    O    0.50252   0.00681   0.25867   1.000
    O111    O    0.27183   0.84170   0.18399   1.000
    O112    O    0.29553   0.02764   0.26085   1.000
    O113    O    0.35803   0.03694   0.27014   1.000
    O114    O    0.34842   0.89815   0.24971   1.000
    O115    O    0.28592   0.88278   0.26508   1.000
    N116    N    0.38828   0.20557   0.06566   1.000
    O117    O    0.38028   0.26148   0.05957   1.000
    O118    O    0.38983   0.23077   0.11451   1.000
    O119    O    0.39003   0.19826   0.17169   1.000
    O120    O    0.50252   0.25868   0.99318   1.000
    O121    O    0.42351   0.26281   0.08494   1.000
    O122    O    0.48601   0.27818   0.10031   1.000
    O123    O    0.29554   0.26086   0.97237   1.000
    O124    O    0.35804   0.27015   0.96307   1.000
    O125    O    0.27184   0.18400   0.15831   1.000
    O126    O    0.41413   0.18657   0.18475   1.000
    O127    O    0.47663   0.17728   0.17546   1.000
    O128    O    0.34843   0.24972   0.10186   1.000
    O129    O    0.28593   0.26509   0.11723   1.000
    N130    N    0.13828   0.56567   0.70557   1.000
    O131    O    0.13983   0.61453   0.73077   1.000
    O132    O    0.14003   0.67171   0.69826   1.000
    O133    O    0.02183   0.65832   0.68400   1.000
    O134    O    0.03592   0.61724   0.76509   1.000
    O135    O    0.09843   0.60187   0.74972   1.000
    O136    O    0.23601   0.60033   0.77819   1.000
    O137    O    0.17351   0.58496   0.76282   1.000
    O138    O    0.25252   0.49320   0.75868   1.000
    O139    O    0.22663   0.67547   0.67728   1.000
    O140    O    0.16413   0.68477   0.68657   1.000
    O141    O    0.13028   0.55958   0.76149   1.000
    O142    O    0.04553   0.47237   0.76087   1.000
    O143    O    0.10804   0.46308   0.77016   1.000
    N144    N    0.38828   0.06567   0.79444   1.000
    O145    O    0.29554   0.97237   0.73915   1.000
    O146    O    0.35804   0.96308   0.72986   1.000
    O147    O    0.42351   0.08495   0.73720   1.000
    O148    O    0.48601   0.10032   0.72183   1.000
    O149    O    0.41413   0.18476   0.81345   1.000
    O150    O    0.47663   0.17547   0.82272   1.000
    O151    O    0.38984   0.11452   0.76924   1.000
    O152    O    0.39004   0.17170   0.80176   1.000
    O153    O    0.34843   0.10186   0.75029   1.000
    O154    O    0.28593   0.11723   0.73492   1.000
    O155    O    0.38029   0.05958   0.73853   1.000
    O156    O    0.27184   0.15831   0.81602   1.000
    O157    O    0.50252   0.99320   0.74133   1.000
    N158    N    0.88827   0.79445   0.93431   1.000
    O159    O    0.88028   0.73854   0.94042   1.000
    O160    O    0.79553   0.73916   0.02763   1.000
    O161    O    0.85803   0.72987   0.03677   1.000
    O162    O    0.84842   0.75030   0.89813   1.000
    O163    O    0.78592   0.73493   0.88276   1.000
    O164    O    0.00252   0.74134   0.00680   1.000
    O165    O    0.91412   0.81345   0.81524   1.000
    O166    O    0.97662   0.82274   0.82453   1.000
    O167    O    0.77183   0.81602   0.84168   1.000
    O168    O    0.92350   0.73721   0.91505   1.000
    O169    O    0.98601   0.72184   0.89968   1.000
    O170    O    0.88983   0.76925   0.88548   1.000
    O171    O    0.89002   0.80176   0.82830   1.000
    N172    N    0.88828   0.06567   0.79442   1.000
    O173    O    0.79553   0.97237   0.73914   1.000
    O174    O    0.85803   0.96308   0.72985   1.000
    O175    O    0.88028   0.05958   0.73852   1.000
    O176    O    0.84843   0.10186   0.75028   1.000
    O177    O    0.78593   0.11723   0.73491   1.000
    O178    O    0.91413   0.18476   0.81332   1.000
    O179    O    0.97663   0.17547   0.82261   1.000
    O180    O    0.92351   0.08495   0.73719   1.000
    O181    O    0.98601   0.10032   0.72182   1.000
    O182    O    0.00252   0.99320   0.74132   1.000
    O183    O    0.77183   0.15832   0.81599   1.000
    O184    O    0.88983   0.11452   0.76923   1.000
    O185    O    0.89003   0.17170   0.80175   1.000
    N186    N    0.63827   0.29444   0.56567   1.000
    O187    O    0.63983   0.26924   0.61452   1.000
    O188    O    0.64003   0.30175   0.67168   1.000
    O189    O    0.73600   0.22183   0.60032   1.000
    O190    O    0.67351   0.23720   0.58495   1.000
    O191    O    0.52183   0.31601   0.65832   1.000
    O192    O    0.63028   0.23853   0.55958   1.000
    O193    O    0.53593   0.23492   0.61724   1.000
    O194    O    0.59843   0.25029   0.60187   1.000
    O195    O    0.54553   0.23915   0.47236   1.000
    O196    O    0.60803   0.22986   0.46307   1.000
    O197    O    0.75252   0.24133   0.49318   1.000
    O198    O    0.72663   0.32274   0.67547   1.000
    O199    O    0.66413   0.31344   0.68474   1.000
    N200    N    0.13828   0.43435   0.29442   1.000
    O201    O    0.23601   0.39969   0.22181   1.000
    O202    O    0.17351   0.41506   0.23718   1.000
    O203    O    0.02183   0.34170   0.31598   1.000
    O204    O    0.04553   0.52765   0.23899   1.000
    O205    O    0.10803   0.53694   0.22984   1.000
    O206    O    0.13028   0.44044   0.23851   1.000
    O207    O    0.25252   0.50682   0.24132   1.000
    O208    O    0.03592   0.38278   0.23491   1.000
    O209    O    0.09843   0.39815   0.25028   1.000
    O210    O    0.22663   0.32455   0.32272   1.000
    O211    O    0.16413   0.31525   0.31343   1.000
    O212    O    0.13983   0.38549   0.26922   1.000
    O213    O    0.14003   0.32831   0.30174   1.000
    N214    N    0.63827   0.43435   0.29442   1.000
    O215    O    0.53593   0.38278   0.23491   1.000
    O216    O    0.59842   0.39815   0.25028   1.000
    O217    O    0.52183   0.34170   0.31600   1.000
    O218    O    0.75251   0.50682   0.24117   1.000
    O219    O    0.72662   0.32455   0.32270   1.000
    O220    O    0.66413   0.31525   0.31343   1.000
    O221    O    0.63028   0.44044   0.23851   1.000
    O222    O    0.73600   0.39969   0.22181   1.000
    O223    O    0.67350   0.41506   0.23718   1.000
    O224    O    0.54553   0.52765   0.23914   1.000
    O225    O    0.60803   0.53694   0.22984   1.000
    O226    O    0.63983   0.38549   0.26922   1.000
    O227    O    0.64003   0.32831   0.30174   1.000
    N228    N    0.13828   0.29444   0.56566   1.000
    O229    O    0.13984   0.26924   0.61450   1.000
    O230    O    0.14004   0.30175   0.67168   1.000
    O231    O    0.04554   0.23915   0.47233   1.000
    O232    O    0.10804   0.22986   0.46306   1.000
    O233    O    0.03593   0.23492   0.61723   1.000
    O234    O    0.09843   0.25029   0.60186   1.000
    O235    O    0.02183   0.31601   0.65832   1.000
    O236    O    0.13029   0.23853   0.55957   1.000
    O237    O    0.23601   0.22183   0.60032   1.000
    O238    O    0.17351   0.23720   0.58495   1.000
    O239    O    0.16413   0.31344   0.68476   1.000
    O240    O    0.22663   0.32274   0.67547   1.000
    O241    O    0.25252   0.24133   0.49319   1.000
    N242    N    0.13827   0.70558   0.43434   1.000
    O243    O    0.04553   0.76087   0.52763   1.000
    O244    O    0.10803   0.77017   0.53692   1.000
    O245    O    0.13028   0.76150   0.44043   1.000
    O246    O    0.23600   0.77819   0.39969   1.000
    O247    O    0.17350   0.76282   0.41506   1.000
    O248    O    0.03592   0.76510   0.38277   1.000
    O249    O    0.09842   0.74973   0.39814   1.000
    O250    O    0.02183   0.68401   0.34154   1.000
    O251    O    0.25252   0.75869   0.50681   1.000
    O252    O    0.13983   0.73078   0.38549   1.000
    O253    O    0.14003   0.69826   0.32831   1.000
    O254    O    0.22663   0.67728   0.32454   1.000
    O255    O    0.16413   0.68657   0.31525   1.000
loop_
    _geom_bond_atom_site_label_1
    _geom_bond_atom_site_label_2
    _geom_bond_distance
    _geom_bond_site_symmetry_2
    _ccdc_geom_bond_type
    N32    O33       2.84510      .   S
    Zr29   O33       4.07424      .   S
    N32    O34       2.42900      .   S
    Zr5    O34       3.36232      .   S
    N32    O35       2.76491      .   S
    Zr28   O35       4.03326  1_455   S
    N32    O36       2.73626  1_554   S
    Zr17   O36       3.95044      .   S
    N32    O37       2.45860  1_554   S
    Zr9    O37       3.37306      .   S
    N32    O38       2.74632  1_654   S
    Zr16   O38       3.83944      .   S
    N32    O39       1.34411      .   S
    Zr7    O39       1.49306      .   S
    N32    O40       2.43832      .   S
    Zr31   O40       3.81189      .   S
    N32    O41       1.12082      .   S
    Zr7    O41       1.64900      .   S
    N32    O42       1.08642      .   S
    Zr7    O42       1.67298      .   S
    N32    O43       2.09974      .   S
    Zr5    O43       3.58484      .   S
    N32    O44       1.35714      .   S
    Zr7    O44       1.48416      .   S
    N32    O45       2.39599      .   S
    Zr30   O45       3.71526  1_455   S
    N46    O47       1.12085      .   S
    Zr2    O47       1.64879      .   S
    N46    O48       1.08620      .   S
    Zr2    O48       1.67291      .   S
    N46    O49       2.09981      .   S
    Zr0    O49       3.58560      .   S
    N46    O50       1.35706      .   S
    Zr2    O50       1.48396      .   S
    N46    O51       2.39585      .   S
    Zr27   O51       3.71506      .   S
    N46    O52       2.84488      .   S
    Zr24   O52       4.07401      .   S
    N46    O53       2.42917      .   S
    Zr0    O53       3.36297      .   S
    N46    O54       2.76480      .   S
    Zr25   O54       4.03302      .   S
    N46    O55       2.73603  1_556   S
    Zr20   O55       3.95007      .   S
    N46    O56       2.45866  1_556   S
    Zr12   O56       3.37364      .   S
    N46    O57       2.74638  1_556   S
    Zr21   O57       3.83968      .   S
    N46    O58       1.34395      .   S
    Zr2    O58       1.49300      .   S
    N46    O59       2.43819      .   S
    Zr26   O59       3.81183      .   S
    N60    O61       2.42971      .   S
    Zr13   O61       3.36327      .   S
    N60    O62       2.76483      .   S
    Zr20   O62       4.03311  1_455   S
    N60    O63       1.08630      .   S
    Zr15   O63       1.67292      .   S
    N60    O64       2.10015      .   S
    Zr13   O64       3.58641      .   S
    N60    O65       2.84496      .   S
    Zr21   O65       4.07409      .   S
    N60    O66       1.35710      .   S
    Zr15   O66       1.48407      .   S
    N60    O67       2.39592      .   S
    Zr22   O67       3.71511  1_455   S
    N60    O68       2.73591  1_565   S
    Zr29   O68       3.94994      .   S
    N60    O69       2.45835  1_565   S
    Zr5    O69       3.37297      .   S
    N60    O70       1.34403      .   S
    Zr15   O70       1.49301      .   S
    N60    O71       2.43826      .   S
    Zr23   O71       3.81185      .   S
    N60    O72       2.74647  1_665   S
    Zr28   O72       3.83966      .   S
    N60    O73       1.12086      .   S
    Zr15   O73       1.64886      .   S
    N74    O75       2.84502      .   S
    Zr0    O75       4.07412      .   S
    N74    O76       2.43826      .   S
    Zr2    O76       3.81184      .   S
    N74    O77       1.34406      .   S
    Zr27   O77       1.49305      .   S
    N74    O78       2.73594      .   S
    Zr8    O78       3.94998      .   S
    N74    O79       2.45834      .   S
    Zr17   O79       3.37290      .   S
    N74    O80       2.39592      .   S
    Zr3    O80       3.71517      .   S
    N74    O81       1.35711      .   S
    Zr27   O81       1.48407      .   S
    N74    O82       2.74635      .   S
    Zr9    O82       3.83956      .   S
    N74    O83       1.08644      .   S
    Zr27   O83       1.67290      .   S
    N74    O84       2.10012      .   S
    Zr25   O84       3.58592      .   S
    N74    O85       2.76499      .   S
    Zr1    O85       4.03318      .   S
    N74    O86       2.42944      .   S
    Zr25   O86       3.36332      .   S
    N74    O87       1.12081      .   S
    Zr27   O87       1.64904      .   S
    N88    O89       2.76723      .   S
    Zr13   O89       4.03913      .   S
    N88    O90       2.42935      .   S
    Zr21   O90       3.36317      .   S
    N88    O91       2.84499      .   S
    Zr12   O91       4.07406      .   S
    N88    O92       1.12082      .   S
    Zr23   O92       1.64902      .   S
    N88    O93       2.43825      .   S
    Zr14   O93       3.81184      .   S
    N88    O94       1.34405      .   S
    Zr23   O94       1.49306      .   S
    N88    O95       2.74638      .   S
    Zr1    O95       3.83958      .   S
    N88    O96       2.73599      .   S
    Zr0    O96       3.95001      .   S
    N88    O97       2.45861      .   S
    Zr25   O97       3.37352      .   S
    N88    O98       1.08636      .   S
    Zr23   O98       1.67293      .   S
    N88    O99       2.10000      .   S
    Zr21   O99       3.58579      .   S
    N88    O100      2.39590      .   S
    Zr15   O100      3.71515      .   S
    N88    O101      1.35710      .   S
    Zr23   O101      1.48405      .   S
    N102   O103      2.42925      .   S
    Zr12   O103      3.36317      .   S
    N102   O104      2.76481      .   S
    Zr21   O104      4.03301      .   S
    N102   O105      1.08631      .   S
    Zr14   O105      1.67296      .   S
    N102   O106      2.09994      .   S
    Zr12   O106      3.58575      .   S
    N102   O107      1.12089      .   S
    Zr14   O107      1.64888      .   S
    N102   O108      1.35711      .   S
    Zr14   O108      1.48404      .   S
    N102   O109      2.39589      .   S
    Zr23   O109      3.71512      .   S
    N102   O110      2.74644  1_565   S
    Zr29   O110      3.83966      .   S
    N102   O111      2.84494      .   S
    Zr20   O111      4.07408      .   S
    N102   O112      2.73588  1_565   S
    Zr28   O112      3.94988      .   S
    N102   O113      2.45855  1_565   S
    Zr4    O113      3.37350      .   S
    N102   O114      1.34403      .   S
    Zr14   O114      1.49306      .   S
    N102   O115      2.43826      .   S
    Zr22   O115      3.81191      .   S
    N116   O117      1.12081      .   S
    Zr6    O117      1.64897      .   S
    N116   O118      1.08639      .   S
    Zr6    O118      1.67295      .   S
    N116   O119      2.10003      .   S
    Zr4    O119      3.58582      .   S
    N116   O120      2.74652  1_554   S
    Zr17   O120      3.84040      .   S
    N116   O121      1.35711      .   S
    Zr6    O121      1.48408      .   S
    N116   O122      2.39591      .   S
    Zr31   O122      3.71518      .   S
    N116   O123      2.73580  1_554   S
    Zr16   O123      3.94981      .   S
    N116   O124      2.45842  1_554   S
    Zr8    O124      3.37333      .   S
    N116   O125      2.84501      .   S
    Zr28   O125      4.07407      .   S
    N116   O126      2.42939      .   S
    Zr4    O126      3.36319      .   S
    N116   O127      2.76497      .   S
    Zr29   O127      4.03315      .   S
    N116   O128      1.34407      .   S
    Zr6    O128      1.49306      .   S
    N116   O129      2.43827      .   S
    Zr30   O129      3.81185      .   S
    N130   O131      1.08642      .   S
    Zr26   O131      1.67298      .   S
    N130   O132      2.10012      .   S
    Zr24   O132      3.58592      .   S
    N130   O133      2.84512      .   S
    Zr1    O133      4.07426  1_655   S
    N130   O134      2.43834      .   S
    Zr3    O134      3.81194  1_655   S
    N130   O135      1.34410      .   S
    Zr26   O135      1.49309      .   S
    N130   O136      2.39596      .   S
    Zr2    O136      3.71521      .   S
    N130   O137      1.35714      .   S
    Zr26   O137      1.48409      .   S
    N130   O138      2.74639      .   S
    Zr8    O138      3.83962      .   S
    N130   O139      2.76499      .   S
    Zr0    O139      4.03320      .   S
    N130   O140      2.42944      .   S
    Zr24   O140      3.36333      .   S
    N130   O141      1.12089      .   S
    Zr26   O141      1.64900      .   S
    N130   O142      2.73598      .   S
    Zr9    O142      3.95013  1_655   S
    N130   O143      2.45858      .   S
    Zr16   O143      3.37358      .   S
    N144   O145      2.73587  1_545   S
    Zr24   O145      3.94998      .   S
    N144   O146      2.45842  1_545   S
    Zr0    O146      3.37337      .   S
    N144   O147      1.35710      .   S
    Zr10   O147      1.48401      .   S
    N144   O148      2.39590      .   S
    Zr19   O148      3.71516      .   S
    N144   O149      2.42940      .   S
    Zr8    O149      3.36326      .   S
    N144   O150      2.76488      .   S
    Zr17   O150      4.03299      .   S
    N144   O151      1.08639      .   S
    Zr10   O151      1.67289      .   S
    N144   O152      2.10007      .   S
    Zr8    O152      3.58587      .   S
    N144   O153      1.34402      .   S
    Zr10   O153      1.49305      .   S
    N144   O154      2.43824      .   S
    Zr18   O154      3.81182      .   S
    N144   O155      1.12080      .   S
    Zr10   O155      1.64894      .   S
    N144   O156      2.84499      .   S
    Zr16   O156      4.07414      .   S
    N144   O157      2.74622  1_545   S
    Zr25   O157      3.83942      .   S
    N158   O159      1.12089      .   S
    Zr3    O159      1.64869      .   S
    N158   O160      2.73613  1_556   S
    Zr21   O160      3.95015      .   S
    N158   O161      2.45634  1_556   S
    Zr13   O161      3.36605      .   S
    N158   O162      1.34390      .   S
    Zr3    O162      1.49295      .   S
    N158   O163      2.43815      .   S
    Zr27   O163      3.81178      .   S
    N158   O164      2.74651  1_656   S
    Zr20   O164      3.83981      .   S
    N158   O165      2.42909      .   S
    Zr1    O165      3.36301      .   S
    N158   O166      2.76472      .   S
    Zr24   O166      4.03302  1_455   S
    N158   O167      2.84482      .   S
    Zr25   O167      4.07394      .   S
    N158   O168      1.35703      .   S
    Zr3    O168      1.48396      .   S
    N158   O169      2.39587      .   S
    Zr26   O169      3.71504  1_455   S
    N158   O170      1.08608      .   S
    Zr3    O170      1.67293      .   S
    N158   O171      2.09973      .   S
    Zr1    O171      3.58563      .   S
    N172   O173      2.73583  1_545   S
    Zr25   O173      3.94994      .   S
    N172   O174      2.45837  1_545   S
    Zr1    O174      3.37331      .   S
    N172   O175      1.12062      .   S
    Zr11   O175      1.64878      .   S
    N172   O176      1.34391      .   S
    Zr11   O176      1.49284      .   S
    N172   O177      2.43816      .   S
    Zr19   O177      3.81175      .   S
    N172   O178      2.42904      .   S
    Zr9    O178      3.36333      .   S
    N172   O179      2.76452      .   S
    Zr16   O179      4.03366  1_455   S
    N172   O180      1.35695      .   S
    Zr11   O180      1.48396      .   S
    N172   O181      2.39586      .   S
    Zr18   O181      3.71511  1_455   S
    N172   O182      2.74622  1_645   S
    Zr24   O182      3.83942      .   S
    N172   O183      2.84498      .   S
    Zr17   O183      4.07395      .   S
    N172   O184      1.08627      .   S
    Zr11   O184      1.67275      .   S
    N172   O185      2.10009      .   S
    Zr9    O185      3.58590      .   S
    N186   O187      1.08645      .   S
    Zr19   O187      1.67296      .   S
    N186   O188      2.09971      .   S
    Zr17   O188      3.58471      .   S
    N186   O189      2.39593      .   S
    Zr11   O189      3.71517      .   S
    N186   O190      1.35714      .   S
    Zr19   O190      1.48412      .   S
    N186   O191      2.84507      .   S
    Zr8    O191      4.07421      .   S
    N186   O192      1.12082      .   S
    Zr19   O192      1.64909      .   S
    N186   O193      2.43830      .   S
    Zr10   O193      3.81187      .   S
    N186   O194      1.34411      .   S
    Zr19   O194      1.49307      .   S
    N186   O195      2.73595      .   S
    Zr4    O195      3.94998      .   S
    N186   O196      2.45854      .   S
    Zr29   O196      3.37342      .   S
    N186   O197      2.74652      .   S
    Zr5    O197      3.84035      .   S
    N186   O198      2.76503      .   S
    Zr9    O198      4.03321      .   S
    N186   O199      2.42908      .   S
    Zr17   O199      3.36209      .   S
    N200   O201      2.39582      .   S
    Zr6    O201      3.71508      .   S
    N200   O202      1.35698      .   S
    Zr30   O202      1.48395      .   S
    N200   O203      2.84509      .   S
    Zr5    O203      4.07412  1_655   S
    N200   O204      2.73705      .   S
    Zr13   O204      3.95243  1_655   S
    N200   O205      2.45845      .   S
    Zr20   O205      3.37339      .   S
    N200   O206      1.12065      .   S
    Zr30   O206      1.64894      .   S
    N200   O207      2.74631      .   S
    Zr12   O207      3.83952      .   S
    N200   O208      2.43828      .   S
    Zr7    O208      3.81186  1_655   S
    N200   O209      1.34398      .   S
    Zr30   O209      1.49294      .   S
    N200   O210      2.76502      .   S
    Zr4    O210      4.03319      .   S
    N200   O211      2.42946      .   S
    Zr28   O211      3.36332      .   S
    N200   O212      1.08636      .   S
    Zr30   O212      1.67274      .   S
    N200   O213      2.10013      .   S
    Zr28   O213      3.58592      .   S
    N214   O215      2.43820      .   S
    Zr6    O215      3.81179      .   S
    N214   O216      1.34396      .   S
    Zr31   O216      1.49290      .   S
    N214   O217      2.84506      .   S
    Zr4    O217      4.07422      .   S
    N214   O218      2.74743      .   S
    Zr13   O218      3.84212      .   S
    N214   O219      2.76494      .   S
    Zr5    O219      4.03302      .   S
    N214   O220      2.42946      .   S
    Zr29   O220      3.36333      .   S
    N214   O221      1.12065      .   S
    Zr31   O221      1.64894      .   S
    N214   O222      2.39580      .   S
    Zr7    O222      3.71505      .   S
    N214   O223      1.35697      .   S
    Zr31   O223      1.48396      .   S
    N214   O224      2.73584      .   S
    Zr12   O224      3.94987      .   S
    N214   O225      2.45846      .   S
    Zr21   O225      3.37340      .   S
    N214   O226      1.08636      .   S
    Zr31   O226      1.67274      .   S
    N214   O227      2.10013      .   S
    Zr29   O227      3.58594      .   S
    N228   O229      1.08614      .   S
    Zr18   O229      1.67301      .   S
    N228   O230      2.09981      .   S
    Zr16   O230      3.58648      .   S
    N228   O231      2.73631      .   S
    Zr5    O231      3.95060  1_655   S
    N228   O232      2.45870      .   S
    Zr28   O232      3.37334      .   S
    N228   O233      2.43841      .   S
    Zr11   O233      3.81201  1_655   S
    N228   O234      1.34415      .   S
    Zr18   O234      1.49313      .   S
    N228   O235      2.84519      .   S
    Zr9    O235      4.07434  1_655   S
    N228   O236      1.12082      .   S
    Zr18   O236      1.64913      .   S
    N228   O237      2.39596      .   S
    Zr10   O237      3.71525      .   S
    N228   O238      1.35715      .   S
    Zr18   O238      1.48413      .   S
    N228   O239      2.42956      .   S
    Zr16   O239      3.36345      .   S
    N228   O240      2.76509      .   S
    Zr8    O240      4.03329      .   S
    N228   O241      2.74635      .   S
    Zr4    O241      3.83958      .   S
    N242   O243      2.73577      .   S
    Zr1    O243      3.95026  1_655   S
    N242   O244      2.45834      .   S
    Zr24   O244      3.37380      .   S
    N242   O245      1.12087      .   S
    Zr22   O245      1.64899      .   S
    N242   O246      2.39594      .   S
    Zr14   O246      3.71518      .   S
    N242   O247      1.35711      .   S
    Zr22   O247      1.48408      .   S
    N242   O248      2.43832      .   S
    Zr15   O248      3.81192  1_655   S
    N242   O249      1.34407      .   S
    Zr22   O249      1.49306      .   S
    N242   O250      2.84697      .   S
    Zr13   O250      4.08090  1_655   S
    N242   O251      2.74643      .   S
    Zr0    O251      3.83971      .   S
    N242   O252      1.08635      .   S
    Zr22   O252      1.67297      .   S
    N242   O253      2.10002      .   S
    Zr20   O253      3.58580      .   S
    N242   O254      2.76489      .   S
    Zr12   O254      4.03309      .   S
    N242   O255      2.42933      .   S
    Zr20   O255      3.36322      .   S
