# CIF file generated by openbabel 2.4.90, see http://openbabel.sf.net
data_I
_chemical_name_common ''
_cell_length_a 15.44
_cell_length_b 17.79
_cell_length_c 18.318
_cell_angle_alpha 112.232
_cell_angle_beta 90.004
_cell_angle_gamma 89.996
_space_group_name_H-M_alt 'P 1'
_space_group_name_Hall 'P 1'
loop_
    _symmetry_equiv_pos_as_xyz
    x,y,z
loop_
    _atom_site_label
    _atom_site_type_symbol
    _atom_site_fract_x
    _atom_site_fract_y
    _atom_site_fract_z
    _atom_site_occupancy
    H0      H    0.50132   0.39691   0.69736   1.000
    H1      H    0.50151   0.60614   0.97268   1.000
    H2      H    0.99427   0.10688   0.13700   1.000
    H3      H    0.83211   0.16264   0.80626   1.000
    H4      H    0.74736   0.28286   0.89260   1.000
    H5      H    0.62188   0.29559   0.68811   1.000
    H6      H    0.70991   0.17791   0.60156   1.000
    H7      H    0.10549   0.77328   0.87207   1.000
    H8      H    0.20318   0.66477   0.78354   1.000
    H9      H    0.39793   0.73257   0.96439   1.000
    H10     H    0.30027   0.84130   0.05289   1.000
    H11     H    0.67837   0.66085   0.97421   1.000
    H12     H    0.75410   0.78709   0.06108   1.000
    H13     H    0.82093   0.84075   0.85813   1.000
    H14     H    0.74436   0.71514   0.77126   1.000
    H15     H    0.00000   0.10308   0.80266   1.000
    H16     H    0.00000   0.89387   0.52734   1.000
    H17     H    0.49429   0.39310   0.36298   1.000
    H18     H    0.33208   0.33733   0.69374   1.000
    H19     H    0.24736   0.21709   0.60735   1.000
    H20     H    0.12190   0.20438   0.81191   1.000
    H21     H    0.20991   0.32208   0.89845   1.000
    H22     H    0.60559   0.72672   0.62796   1.000
    H23     H    0.70331   0.83521   0.71647   1.000
    H24     H    0.89804   0.76731   0.53562   1.000
    H25     H    0.80034   0.65860   0.44713   1.000
    H26     H    0.17835   0.83918   0.52580   1.000
    H27     H    0.25409   0.71295   0.43890   1.000
    H28     H    0.32091   0.65923   0.64185   1.000
    H29     H    0.24434   0.78484   0.72872   1.000
    H30     H    0.49868   0.60309   0.30260   1.000
    H31     H    0.49850   0.39386   0.02733   1.000
    H32     H    0.00573   0.89312   0.86300   1.000
    H33     H    0.16790   0.83736   0.19370   1.000
    H34     H    0.25264   0.71713   0.10733   1.000
    H35     H    0.37812   0.70440   0.31189   1.000
    H36     H    0.29010   0.82209   0.39840   1.000
    H37     H    0.89451   0.22671   0.12794   1.000
    H38     H    0.79681   0.33522   0.21647   1.000
    H39     H    0.60207   0.26742   0.03562   1.000
    H40     H    0.69973   0.15869   0.94712   1.000
    H41     H    0.32164   0.33915   0.02570   1.000
    H42     H    0.24590   0.21292   0.93891   1.000
    H43     H    0.17907   0.15926   0.14186   1.000
    H44     H    0.25564   0.28486   0.22873   1.000
    H45     H    0.99870   0.89692   0.19734   1.000
    H46     H    0.99849   0.10613   0.47267   1.000
    H47     H    0.50574   0.60689   0.63701   1.000
    H48     H    0.66793   0.66267   0.30625   1.000
    H49     H    0.75266   0.78291   0.39265   1.000
    H50     H    0.87811   0.79562   0.18809   1.000
    H51     H    0.79010   0.67793   0.10155   1.000
    H52     H    0.39441   0.27329   0.37204   1.000
    H53     H    0.29668   0.16480   0.28353   1.000
    H54     H    0.10195   0.23271   0.46439   1.000
    H55     H    0.19966   0.34142   0.55288   1.000
    H56     H    0.82166   0.16081   0.47420   1.000
    H57     H    0.74593   0.28705   0.56109   1.000
    H58     H    0.67909   0.34075   0.35810   1.000
    H59     H    0.75565   0.21514   0.27127   1.000
    C60     C    0.83365   0.09558   0.64691   1.000
    C61     C    0.77777   0.16401   0.69830   1.000
    C62     C    0.78697   0.19280   0.78066   1.000
    C63     C    0.73910   0.25930   0.82892   1.000
    C64     C    0.67939   0.29687   0.79582   1.000
    C65     C    0.62844   0.36920   0.84742   1.000
    C66     C    0.66831   0.26651   0.71369   1.000
    C67     C    0.71754   0.20111   0.66534   1.000
    C68     C    0.13827   0.87937   0.02021   1.000
    C69     C    0.19690   0.81403   0.96780   1.000
    C70     C    0.16979   0.76421   0.89172   1.000
    C71     C    0.22403   0.70382   0.84250   1.000
    C72     C    0.30659   0.69207   0.86857   1.000
    C73     C    0.36496   0.62653   0.81597   1.000
    C74     C    0.33369   0.74181   0.94469   1.000
    C75     C    0.27949   0.80231   0.99389   1.000
    C76     C    0.65890   0.60627   0.81575   1.000
    C77     C    0.70643   0.68058   0.86740   1.000
    C78     C    0.70922   0.70066   0.94917   1.000
    C79     C    0.75193   0.77053   0.99755   1.000
    C80     C    0.79304   0.82093   0.96494   1.000
    C81     C    0.84122   0.89461   0.01693   1.000
    O82     O    0.56619   0.60876   0.50644   1.000
    O83     O    0.37750   0.44364   0.82143   1.000
    O84     O    0.12202   0.93766   0.65315   1.000
    O85     O    0.34091   0.59255   0.40867   1.000
    C86     C    0.79001   0.80100   0.88320   1.000
    C87     C    0.74705   0.73124   0.83477   1.000
    C88     C    0.33363   0.40441   0.85300   1.000
    C89     C    0.27776   0.33597   0.80162   1.000
    C90     C    0.28696   0.30716   0.71935   1.000
    C91     C    0.23910   0.24066   0.67100   1.000
    C92     C    0.17941   0.20308   0.70419   1.000
    C93     C    0.12847   0.13075   0.65260   1.000
    C94     C    0.16833   0.23346   0.78632   1.000
    C95     C    0.21754   0.29887   0.83467   1.000
    C96     C    0.63831   0.62062   0.47980   1.000
    C97     C    0.69699   0.68593   0.53222   1.000
    C98     C    0.66989   0.73577   0.60830   1.000
    C99     C    0.72414   0.79614   0.65751   1.000
    C100    C    0.80671   0.80787   0.63143   1.000
    C101    C    0.86505   0.87344   0.68403   1.000
    C102    C    0.83380   0.75810   0.55532   1.000
    C103    C    0.77958   0.69761   0.50614   1.000
    C104    C    0.15888   0.89374   0.68426   1.000
    C105    C    0.20641   0.81943   0.63260   1.000
    C106    C    0.20921   0.79936   0.55084   1.000
    C107    C    0.25192   0.72950   0.50240   1.000
    C108    C    0.29302   0.67908   0.53504   1.000
    C109    C    0.34120   0.60540   0.48303   1.000
    C110    C    0.29000   0.69900   0.61678   1.000
    C111    C    0.24703   0.76875   0.66522   1.000
    C112    C    0.16636   0.90442   0.35309   1.000
    C113    C    0.22223   0.83599   0.30161   1.000
    C114    C    0.21303   0.80719   0.21934   1.000
    C115    C    0.26090   0.74069   0.17108   1.000
    C116    C    0.32061   0.70312   0.20418   1.000
    C117    C    0.37155   0.63079   0.15258   1.000
    C118    C    0.33169   0.73348   0.28631   1.000
    C119    C    0.28246   0.79888   0.33465   1.000
    C120    C    0.86174   0.12063   0.97900   1.000
    C121    C    0.80309   0.18596   0.03220   1.000
    C122    C    0.83021   0.23578   0.10828   1.000
    C123    C    0.77597   0.29617   0.15750   1.000
    C124    C    0.69340   0.30792   0.13143   1.000
    C125    C    0.63504   0.37347   0.18404   1.000
    C126    C    0.66631   0.25818   0.05531   1.000
    C127    C    0.72051   0.19768   0.00612   1.000
    C128    C    0.34111   0.39373   0.18425   1.000
    C129    C    0.29358   0.31943   0.13200   1.000
    C130    C    0.29078   0.29934   0.05083   1.000
    C131    C    0.24807   0.22948   0.00244   1.000
    C132    C    0.20697   0.17907   0.03505   1.000
    C133    C    0.15879   0.10539   0.98300   1.000
    C134    C    0.20999   0.19901   0.11679   1.000
    C135    C    0.25295   0.26877   0.16523   1.000
    C136    C    0.66638   0.59560   0.14690   1.000
    C137    C    0.72225   0.66403   0.19837   1.000
    C138    C    0.71306   0.69284   0.28065   1.000
    C139    C    0.76091   0.75934   0.32890   1.000
    C140    C    0.82061   0.79691   0.29580   1.000
    C141    C    0.87156   0.86924   0.34740   1.000
    C142    C    0.83168   0.76654   0.21367   1.000
    C143    C    0.78246   0.70114   0.16533   1.000
    C144    C    0.36169   0.37939   0.52020   1.000
    C145    C    0.30301   0.31408   0.46778   1.000
    C146    C    0.33011   0.26425   0.39170   1.000
    C147    C    0.27585   0.20387   0.34250   1.000
    C148    C    0.19328   0.19214   0.36850   1.000
    C149    C    0.13495   0.12657   0.31598   1.000
    C150    C    0.16620   0.24191   0.44469   1.000
    C151    C    0.22042   0.30240   0.49387   1.000
    C152    C    0.84113   0.10625   0.31574   1.000
    C153    C    0.79359   0.18056   0.36739   1.000
    C154    C    0.79080   0.20063   0.44916   1.000
    C155    C    0.74808   0.27049   0.49755   1.000
    C156    C    0.70698   0.32091   0.46495   1.000
    C157    C    0.65881   0.39459   0.51696   1.000
    C158    C    0.71000   0.30099   0.38321   1.000
    C159    C    0.75296   0.23123   0.33477   1.000
    O160    O    0.50062   0.45549   0.71116   1.000
    O161    O    0.50001   0.54726   0.95647   1.000
    O162    O    0.99693   0.04819   0.12198   1.000
    O163    O    0.33748   0.58903   0.74476   1.000
    O164    O    0.16648   0.91892   0.09076   1.000
    O165    O    0.83267   0.08224   0.57230   1.000
    O166    O    0.56275   0.39061   0.81889   1.000
    O167    O    0.43585   0.61272   0.84318   1.000
    O168    O    0.87833   0.93888   0.98647   1.000
    O169    O    0.65634   0.40419   0.91878   1.000
    O170    O    0.06615   0.89126   0.99358   1.000
    O171    O    0.87753   0.05634   0.67857   1.000
    O172    O    0.62202   0.56237   0.84686   1.000
    O173    O    0.84092   0.90746   0.09130   1.000
    O174    O    0.65949   0.59248   0.74126   1.000
    O175    O    0.00000   0.04450   0.78885   1.000
    O176    O    0.00000   0.95275   0.54353   1.000
    O177    O    0.49693   0.45180   0.37801   1.000
    O178    O    0.83755   0.91096   0.75522   1.000
    O179    O    0.66650   0.58110   0.40924   1.000
    O180    O    0.33265   0.41776   0.92764   1.000
    O181    O    0.06274   0.10939   0.68110   1.000
    O182    O    0.93593   0.88728   0.65681   1.000
    O183    O    0.37832   0.56112   0.51350   1.000
    O184    O    0.15641   0.09571   0.58126   1.000
    O185    O    0.15948   0.90751   0.75874   1.000
    O186    O    0.49938   0.54451   0.28884   1.000
    O187    O    0.50000   0.45274   0.04350   1.000
    O188    O    0.00308   0.95182   0.87802   1.000
    O189    O    0.66252   0.41097   0.25520   1.000
    O190    O    0.83353   0.08110   0.90924   1.000
    O191    O    0.16734   0.91775   0.42763   1.000
    O192    O    0.43726   0.60940   0.18111   1.000
    O193    O    0.56415   0.38729   0.15682   1.000
    O194    O    0.12168   0.06112   0.01352   1.000
    O195    O    0.34364   0.59578   0.08122   1.000
    O196    O    0.93386   0.10875   0.00642   1.000
    O197    O    0.12249   0.94367   0.32143   1.000
    O198    O    0.37798   0.43764   0.15314   1.000
    O199    O    0.15909   0.09253   0.90869   1.000
    O200    O    0.34052   0.40751   0.25873   1.000
    O201    O    0.99938   0.95550   0.21115   1.000
    O202    O    0.99999   0.04725   0.45647   1.000
    O203    O    0.50309   0.54820   0.62190   1.000
    O204    O    0.16245   0.08906   0.24478   1.000
    O205    O    0.33351   0.41892   0.59076   1.000
    O206    O    0.66736   0.58224   0.07235   1.000
    O207    O    0.93727   0.89062   0.31888   1.000
    O208    O    0.06407   0.11273   0.34319   1.000
    O209    O    0.62168   0.43887   0.48649   1.000
    O210    O    0.84363   0.90427   0.41875   1.000
    O211    O    0.43382   0.39124   0.49356   1.000
    O212    O    0.62250   0.55637   0.17857   1.000
    O213    O    0.87800   0.06235   0.34685   1.000
    O214    O    0.65910   0.40743   0.59132   1.000
    O215    O    0.84053   0.09247   0.24120   1.000
loop_
    _geom_bond_atom_site_label_1
    _geom_bond_atom_site_label_2
    _geom_bond_distance
    _geom_bond_site_symmetry_2
    _ccdc_geom_bond_type
    C131   C132      1.40326      .   S
    C131   C130      1.38985      .   S
    C131   H42       1.08755  1_554   S
    C127   C121      1.40454      .   S
    C127   C126      1.39175      .   S
    C127   H40       1.08850  1_554   S
    O196   C120      1.27175  1_554   S
    O194   C133      1.26282  1_554   S
    C81    O173      1.29322      .   S
    C81    C80       1.49461  1_554   S
    C81    O168      1.26208  1_554   S
    C68    O164      1.29104      .   S
    C68    C69       1.49930  1_554   S
    C68    O170      1.26518  1_554   S
    H41    C130      1.08965      .   S
    H31    O187      0.97509      .   S
    C121   C122      1.40294      .   S
    C121   C120      1.50435  1_554   S
    C132   C134      1.40287      .   S
    C132   C133      1.49494  1_554   S
    H39    C126      1.08887      .   S
    C130   C129      1.39222      .   S
    H10    C75       1.08851  1_554   S
    C126   C124      1.40305      .   S
    H12    C79       1.08755  1_554   S
    O206   C136      1.29461      .   S
    O195   C117      1.29083      .   S
    H51    C143      1.08827      .   S
    H34    C115      1.08868      .   S
    C122   H37       1.08872      .   S
    C122   C123      1.39116      .   S
    C134   H43       1.08843      .   S
    C134   C135      1.39077      .   S
    O162   H2        0.97484      .   S
    C124   C123      1.40442      .   S
    C124   C125      1.49995      .   S
    C129   C135      1.41121      .   S
    C129   C128      1.49823      .   S
    C136   O212      1.26056      .   S
    C136   C137      1.49886      .   S
    C117   O192      1.26401      .   S
    C117   C116      1.49912      .   S
    O198   C128      1.26327      .   S
    O193   C125      1.26485      .   S
    C123   H38       1.08864      .   S
    C135   H44       1.08843      .   S
    C143   C137      1.40319      .   S
    C143   C142      1.39134      .   S
    C115   C116      1.40389      .   S
    C115   C114      1.39134      .   S
    C125   O189      1.29077      .   S
    C128   O200      1.29170      .   S
    H50    C142      1.08838      .   S
    H33    C114      1.08857      .   S
    H45    O201      0.97502      .   S
    C137   C138      1.40356      .   S
    C116   C118      1.40337      .   S
    C142   C140      1.40337      .   S
    C114   C113      1.40339      .   S
    O215   C152      1.29276      .   S
    O204   C149      1.29156      .   S
    H59    C159      1.08846      .   S
    C138   H48       1.08808      .   S
    C138   C139      1.39131      .   S
    H53    C147      1.08869      .   S
    C118   H35       1.08840      .   S
    C118   C119      1.39131      .   S
    O186   H30       0.97514      .   S
    C140   C139      1.40387      .   S
    C140   C141      1.49913      .   S
    C113   C119      1.40322      .   S
    C113   C112      1.49887      .   S
    C152   O213      1.26321      .   S
    C152   C153      1.49491      .   S
    C149   O208      1.26480      .   S
    C149   C148      1.49942      .   S
    O207   C141      1.26400      .   S
    O197   C112      1.26056      .   S
    C139   H49       1.08868      .   S
    C119   H36       1.08775      .   S
    C159   C153      1.40379      .   S
    C159   C158      1.39074      .   S
    C147   C148      1.40386      .   S
    C147   C146      1.39109      .   S
    C141   O210      1.29082      .   S
    C112   O191      1.29452      .   S
    H58    C158      1.08901      .   S
    H17    O177      0.97482      .   S
    C153   C154      1.40294      .   S
    C148   C150      1.40415      .   S
    H52    C146      1.08867      .   S
    C158   C156      1.40292      .   S
    C146   C145      1.40297      .   S
    O85    C109      1.29308      .   S
    O179   C96       1.29102      .   S
    H27    C107      1.08704      .   S
    C150   H54       1.08893      .   S
    C150   C151      1.39176      .   S
    H25    C103      1.08869      .   S
    C154   H56       1.08861      .   S
    C154   C155      1.38980      .   S
    O202   H46       0.97503      .   S
    C156   C155      1.40321      .   S
    C156   C157      1.49469      .   S
    C145   C151      1.40461      .   S
    C145   C144      1.49946      .   S
    C96    O82       1.26517      .   S
    C96    C97       1.49945      .   S
    C109   O183      1.26227      .   S
    C109   C108      1.49469      .   S
    O209   C157      1.26225      .   S
    O211   C144      1.26519      .   S
    C151   H55       1.08869      .   S
    C155   H57       1.08774      .   S
    C107   C108      1.40373      .   S
    C107   C106      1.39008      .   S
    C103   C97       1.40455      .   S
    C103   C102      1.39174      .   S
    C157   O214      1.29309      .   S
    C144   O205      1.29102      .   S
    H26    C106      1.08863      .   S
    H16    O176      0.97477      .   S
    C97    C98       1.40298      .   S
    C108   C110      1.40293      .   S
    H24    C102      1.08894      .   S
    C106   C105      1.40277      .   S
    C102   C100      1.40305      .   S
    O165   C60       1.29576      .   S
    O184   C93       1.29078      .   S
    H6     C67       1.08826      .   S
    H19    C91       1.08699      .   S
    C98    H22       1.08868      .   S
    C98    C99       1.39115      .   S
    C110   H28       1.08854      .   S
    C110   C111      1.39073      .   S
    O203   H47       0.97465      .   S
    C100   C99       1.40444      .   S
    C100   C101      1.49995      .   S
    C105   C111      1.40381      .   S
    C105   C104      1.49496      .   S
    C60    O171      1.26050      .   S
    C60    C61       1.49837      .   S
    C93    O181      1.26385      .   S
    C93    C92       1.49909      .   S
    O84    C104      1.26330      .   S
    O182   C101      1.26488      .   S
    C99    H23       1.08856      .   S
    C111   H29       1.08847      .   S
    C67    C61       1.40233      .   S
    C67    C66       1.39137      .   S
    C91    C92       1.40487      .   S
    C91    C90       1.39188      .   S
    C101   O178      1.29139      .   S
    C104   O185      1.29171      .   S
    H5     C66       1.08840      .   S
    H18    C90       1.08820      .   S
    H0     O160      0.97501      .   S
    C61    C62       1.40493      .   S
    C92    C94       1.40338      .   S
    C66    C64       1.40336      .   S
    C90    C89       1.40339      .   S
    O174   C76       1.29183      .   S
    O163   C73       1.29150      .   S
    H14    C87       1.08860      .   S
    C62    H3        1.08810      .   S
    C62    C63       1.39133      .   S
    H8     C71       1.08853      .   S
    C94    H20       1.08850      .   S
    C94    C95       1.39138      .   S
    O175   H15       0.97496      .   S
    C64    C63       1.40391      .   S
    C64    C65       1.49910      .   S
    C89    C95       1.40331      .   S
    C89    C88       1.49831      .   S
    C76    O172      1.26317      .   S
    C76    C77       1.49492      .   S
    C73    O167      1.26477      .   S
    C73    C72       1.49988      .   S
    O166   C65       1.26396      .   S
    O83    C88       1.25940      .   S
    C63    H4        1.08749      .   S
    C95    H21       1.08827      .   S
    C87    C77       1.40380      .   S
    C87    C86       1.39072      .   S
    C71    C72       1.40442      .   S
    C71    C70       1.39117      .   S
    C65    O169      1.29072      .   S
    C88    O180      1.29626      .   S
    H13    C86       1.08844      .   S
    H32    O188      0.97483      .   S
    C77    C78       1.40289      .   S
    C72    C74       1.40306      .   S
    H7     C70       1.08865      .   S
    C86    C80       1.40287      .   S
    C70    C69       1.40299      .   S
    O199   C133      1.29212      .   S
    O190   C120      1.27950      .   S
    C74    H9        1.08895      .   S
    C74    C75       1.39180      .   S
    C78    H11       1.08854      .   S
    C78    C79       1.38978      .   S
    O161   H1        0.97501      .   S
    C80    C79       1.40323      .   S
    C69    C75       1.40461      .   S
