# CIF file generated by openbabel 2.4.90, see http://openbabel.sf.net
data_I
_chemical_name_common ''
_cell_length_a 15.44
_cell_length_b 17.79
_cell_length_c 18.318
_cell_angle_alpha 112.232
_cell_angle_beta 90.004
_cell_angle_gamma 89.996
_space_group_name_H-M_alt 'P 1'
_space_group_name_Hall 'P 1'
loop_
    _symmetry_equiv_pos_as_xyz
    x,y,z
loop_
    _atom_site_label
    _atom_site_type_symbol
    _atom_site_fract_x
    _atom_site_fract_y
    _atom_site_fract_z
    _atom_site_occupancy
    Zr0     Zr   0.50003   0.50266   0.83402   1.000
    Zr1     Zr   0.09665   0.00295   0.16680   1.000
    Zr2     Zr   0.59908   0.49677   0.99659   1.000
    Zr3     Zr   0.90009   0.00000   0.16628   1.000
    Zr4     Zr   0.00000   0.99736   0.66599   1.000
    Zr5     Zr   0.59666   0.49706   0.33320   1.000
    Zr6     Zr   0.09908   0.00320   0.50343   1.000
    Zr7     Zr   0.40008   0.49994   0.33370   1.000
    Zr8     Zr   0.49998   0.49735   0.16599   1.000
    Zr9     Zr   0.90337   0.99707   0.83320   1.000
    Zr10    Zr   0.40093   0.50322   0.00342   1.000
    Zr11    Zr   0.09992   0.99993   0.83371   1.000
    Zr12    Zr   0.99997   0.00264   0.33401   1.000
    Zr13    Zr   0.40336   0.50295   0.66680   1.000
    Zr14    Zr   0.90094   0.99680   0.49657   1.000
    Zr15    Zr   0.59993   0.50005   0.66629   1.000
    Zr16    Zr   1.00000   0.99999   0.99999   1.000
    Zr17    Zr   0.50001   0.49999   0.50000   1.000
    N18     N    0.22948   0.26886   0.75285   1.000
    O19     O    0.29814   0.36467   0.85919   1.000
    O20     O    0.17862   0.15916   0.64760   1.000
    O21     O    0.33413   0.37100   0.79029   1.000
    O22     O    0.13043   0.16112   0.71320   1.000
    N23     N    0.74834   0.24700   0.08179   1.000
    O24     O    0.80839   0.14304   0.97651   1.000
    O25     O    0.85764   0.15068   0.04250   1.000
    O26     O    0.68896   0.35051   0.18800   1.000
    O27     O    0.64020   0.34466   0.12160   1.000
    N28     N    0.99924   0.07669   0.46457   1.000
    O29     O    0.97485   0.04936   0.47055   1.000
    O30     O    0.02439   0.05096   0.47226   1.000
    O31     O    0.99961   0.05082   0.42991   1.000
    N32     N    0.72948   0.23111   0.74713   1.000
    O33     O    0.67860   0.34080   0.85241   1.000
    O34     O    0.63044   0.33887   0.78679   1.000
    O35     O    0.83412   0.12898   0.70971   1.000
    O36     O    0.79814   0.13532   0.64078   1.000
    N37     N    0.77053   0.73114   0.24713   1.000
    O38     O    0.66589   0.62900   0.20971   1.000
    O39     O    0.82141   0.84084   0.35240   1.000
    O40     O    0.86958   0.83889   0.28679   1.000
    O41     O    0.70187   0.63532   0.14080   1.000
    N42     N    0.27052   0.76888   0.25285   1.000
    O43     O    0.20186   0.86468   0.35919   1.000
    O44     O    0.16588   0.87102   0.29028   1.000
    O45     O    0.32140   0.65919   0.14758   1.000
    O46     O    0.36957   0.66113   0.21320   1.000
    N47     N    0.24825   0.25305   0.41815   1.000
    O48     O    0.14014   0.15537   0.37837   1.000
    O49     O    0.30834   0.35699   0.52346   1.000
    O50     O    0.18890   0.14953   0.31197   1.000
    O51     O    0.35758   0.34933   0.45746   1.000
    N52     N    0.25024   0.24932   0.08368   1.000
    O53     O    0.31027   0.35153   0.18995   1.000
    O54     O    0.18987   0.14778   0.97744   1.000
    O55     O    0.34461   0.35841   0.12162   1.000
    O56     O    0.15554   0.13994   0.04522   1.000
    N57     N    0.75175   0.74696   0.58185   1.000
    O58     O    0.69166   0.64302   0.47654   1.000
    O59     O    0.85985   0.84464   0.62163   1.000
    O60     O    0.64242   0.65067   0.54254   1.000
    O61     O    0.81110   0.85049   0.68803   1.000
    N62     N    0.00440   0.92247   0.87051   1.000
    O63     O    0.97881   0.94846   0.86306   1.000
    O64     O    0.00297   0.94919   0.90476   1.000
    O65     O    0.02795   0.94917   0.86319   1.000
    N66     N    0.49925   0.42330   0.03541   1.000
    O67     O    0.47486   0.45064   0.02944   1.000
    O68     O    0.52439   0.44903   0.02773   1.000
    O69     O    0.49962   0.44917   0.07008   1.000
    N70     N    0.75025   0.25066   0.41627   1.000
    O71     O    0.68988   0.35220   0.52254   1.000
    O72     O    0.84462   0.14157   0.37835   1.000
    O73     O    0.81028   0.14845   0.31000   1.000
    O74     O    0.65555   0.36005   0.45476   1.000
    N75     N    0.74977   0.75068   0.91627   1.000
    O76     O    0.65540   0.64160   0.87835   1.000
    O77     O    0.84447   0.86006   0.95475   1.000
    O78     O    0.81014   0.85220   0.02253   1.000
    O79     O    0.68974   0.64847   0.81002   1.000
    N80     N    0.25166   0.75300   0.91816   1.000
    O81     O    0.14237   0.84931   0.95747   1.000
    O82     O    0.19161   0.85697   0.02347   1.000
    O83     O    0.35980   0.65534   0.87838   1.000
    O84     O    0.31104   0.64950   0.81197   1.000
    N85     N    0.99560   0.07754   0.12949   1.000
    O86     O    0.97206   0.05082   0.13681   1.000
    O87     O    0.02119   0.05155   0.13694   1.000
    O88     O    0.99703   0.05081   0.09524   1.000
    N89     N    0.50097   0.42620   0.70426   1.000
    O90     O    0.50065   0.45264   0.73843   1.000
    O91     O    0.47648   0.45271   0.69662   1.000
    O92     O    0.52563   0.45199   0.69649   1.000
    N93     N    0.00000   0.92331   0.53544   1.000
    O94     O    0.02477   0.95064   0.52946   1.000
    O95     O    0.00000   0.94918   0.57010   1.000
    O96     O    0.97523   0.94904   0.52774   1.000
    N97     N    0.49561   0.42245   0.37050   1.000
    O98     O    0.47206   0.44916   0.36318   1.000
    O99     O    0.52120   0.44844   0.36305   1.000
    O100    O    0.49704   0.44918   0.40475   1.000
    N101    N    0.24976   0.74933   0.58372   1.000
    O102    O    0.34446   0.63994   0.54523   1.000
    O103    O    0.31012   0.64779   0.47745   1.000
    O104    O    0.18973   0.85153   0.68997   1.000
    O105    O    0.15538   0.85842   0.62164   1.000
    N106    N    0.50076   0.57670   0.96457   1.000
    O107    O    0.50039   0.55083   0.92991   1.000
    O108    O    0.47562   0.55097   0.97226   1.000
    O109    O    0.52515   0.54936   0.97055   1.000
    N110    N    0.99904   0.92621   0.20424   1.000
    O111    O    0.02352   0.95272   0.19661   1.000
    O112    O    0.99936   0.95264   0.23841   1.000
    O113    O    0.97439   0.95198   0.19648   1.000
    N114    N    0.50441   0.57754   0.62945   1.000
    O115    O    0.52796   0.55083   0.63678   1.000
    O116    O    0.47882   0.55156   0.63690   1.000
    O117    O    0.50298   0.55082   0.59520   1.000
    N118    N    0.49903   0.57380   0.29572   1.000
    O119    O    0.52353   0.54729   0.30337   1.000
    O120    O    0.47438   0.54801   0.30349   1.000
    O121    O    0.49936   0.54737   0.26157   1.000
    N122    N    0.00000   0.07379   0.79576   1.000
    O123    O    0.00000   0.04736   0.76159   1.000
    O124    O    0.02498   0.04800   0.80352   1.000
    O125    O    0.97584   0.04729   0.80339   1.000
loop_
    _geom_bond_atom_site_label_1
    _geom_bond_atom_site_label_2
    _geom_bond_distance
    _geom_bond_site_symmetry_2
    _ccdc_geom_bond_type
    N18    O19       2.30454      .   S
    Zr10   O19       3.26289  1_554   S
    N18    O20       2.30123      .   S
    Zr6    O20       3.26124      .   S
    N18    O21       2.33238      .   S
    Zr0    O21       3.35703      .   S
    N18    O22       2.34252      .   S
    Zr4    O22       3.37401  1_565   S
    N23    O24       2.30231  1_554   S
    Zr9    O24       3.25982  1_565   S
    N23    O25       2.31692      .   S
    Zr16   O25       3.32337  1_566   S
    N23    O26       2.30329      .   S
    Zr5    O26       3.26431      .   S
    N23    O27       2.31927      .   S
    Zr8    O27       3.32494      .   S
    N28    O29       0.65614      .   S
    Zr14   O29       1.65574  1_565   S
    N28    O30       0.65493  1_655   S
    Zr6    O30       1.65667      .   S
    N28    O31       0.62764      .   S
    Zr12   O31       1.63738      .   S
    N32    O33       2.30135      .   S
    Zr2    O33       3.26139      .   S
    N32    O34       2.34255      .   S
    Zr0    O34       3.37406      .   S
    N32    O35       2.33207      .   S
    Zr4    O35       3.35618  1_465   S
    N32    O36       2.30458      .   S
    Zr14   O36       3.26255  1_565   S
    N37    O38       2.33236      .   S
    Zr8    O38       3.35702      .   S
    N37    O39       2.30129      .   S
    Zr14   O39       3.26129      .   S
    N37    O40       2.34243      .   S
    Zr12   O40       3.37369  1_545   S
    N37    O41       2.30450      .   S
    Zr2    O41       3.26279  1_556   S
    N42    O43       2.30446      .   S
    Zr6    O43       3.26274  1_545   S
    N42    O44       2.33219      .   S
    Zr12   O44       3.35654  1_645   S
    N42    O45       2.30127      .   S
    Zr10   O45       3.26125      .   S
    N42    O46       2.34251      .   S
    Zr8    O46       3.37403      .   S
    N47    O48       2.31935      .   S
    Zr12   O48       3.32509  1_655   S
    N47    O49       2.30269      .   S
    Zr13   O49       3.26029      .   S
    N47    O50       2.30303      .   S
    Zr1    O50       3.26386      .   S
    N47    O51       2.31708      .   S
    Zr17   O51       3.32371      .   S
    N52    O53       2.29693      .   S
    Zr7    O53       3.25071      .   S
    N52    O54       2.29328  1_554   S
    Zr11   O54       3.24631  1_565   S
    N52    O55       2.31340      .   S
    Zr8    O55       3.31744      .   S
    N52    O56       2.32032      .   S
    Zr16   O56       3.33047  1_666   S
    N57    O58       2.30266      .   S
    Zr5    O58       3.26026      .   S
    N57    O59       2.31923      .   S
    Zr4    O59       3.32477  1_455   S
    N57    O60       2.31712      .   S
    Zr17   O60       3.32380      .   S
    N57    O61       2.30307      .   S
    Zr9    O61       3.26394      .   S
    N62    O63       0.66044  1_455   S
    Zr9    O63       1.66186      .   S
    N62    O64       0.62795      .   S
    Zr16   O64       1.63372  1_655   S
    N62    O65       0.65122      .   S
    Zr11   O65       1.64652      .   S
    N66    O67       0.65627      .   S
    Zr10   O67       1.65594      .   S
    N66    O68       0.65484      .   S
    Zr2    O68       1.65628  1_556   S
    N66    O69       0.62764      .   S
    Zr8    O69       1.63762      .   S
    N70    O71       2.29355      .   S
    Zr15   O71       3.24654      .   S
    N70    O72       2.31322      .   S
    Zr12   O72       3.31702      .   S
    N70    O73       2.29696      .   S
    Zr3    O73       3.25069      .   S
    N70    O74       2.32026      .   S
    Zr17   O74       3.33032      .   S
    N75    O76       2.31336      .   S
    Zr0    O76       3.31740      .   S
    N75    O77       2.32022      .   S
    Zr16   O77       3.33015      .   S
    N75    O78       2.29335  1_556   S
    Zr3    O78       3.24604  1_545   S
    N75    O79       2.29675      .   S
    Zr15   O79       3.25055      .   S
    N80    O81       2.31688      .   S
    Zr16   O81       3.32316  1_655   S
    N80    O82       2.30259  1_556   S
    Zr1    O82       3.26007  1_545   S
    N80    O83       2.31924      .   S
    Zr0    O83       3.32496      .   S
    N80    O84       2.30315      .   S
    Zr13   O84       3.26398      .   S
    N85    O86       0.65144      .   S
    Zr3    O86       1.64707      .   S
    N85    O87       0.66044  1_655   S
    Zr1    O87       1.66185      .   S
    N85    O88       0.62807      .   S
    Zr16   O88       1.63401  1_566   S
    N89    O90       0.62462      .   S
    Zr0    O90       1.63682      .   S
    N89    O91       0.65947      .   S
    Zr13   O91       1.65565      .   S
    N89    O92       0.65188      .   S
    Zr15   O92       1.64670      .   S
    N93    O94       0.65955      .   S
    Zr6    O94       1.65993  1_545   S
    N93    O95       0.62759      .   S
    Zr4    O95       1.63733      .   S
    N93    O96       0.65146  1_455   S
    Zr14   O96       1.65244      .   S
    N97    O98       0.65128      .   S
    Zr7    O98       1.64666      .   S
    N97    O99       0.66047      .   S
    Zr5    O99       1.66204      .   S
    N97    O100      0.62809      .   S
    Zr17   O100      1.63404      .   S
    N101   O102      2.32028      .   S
    Zr17   O102      3.33035      .   S
    N101   O103      2.29354      .   S
    Zr7    O103      3.24654      .   S
    N101   O104      2.29672      .   S
    Zr11   O104      3.25039      .   S
    N101   O105      2.31337      .   S
    Zr4    O105      3.31745      .   S
    N106   O107      0.62763      .   S
    Zr0    O107      1.63728      .   S
    N106   O108      0.65487      .   S
    Zr10   O108      1.65656  1_554   S
    N106   O109      0.65628      .   S
    Zr2    O109      1.65617      .   S
    N110   O111      0.65940  1_655   S
    Zr1    O111      1.65553  1_545   S
    N110   O112      0.62461      .   S
    Zr12   O112      1.63681  1_545   S
    N110   O113      0.65161      .   S
    Zr3    O113      1.64594  1_545   S
    N114   O115      0.65129      .   S
    Zr15   O115      1.64707      .   S
    N114   O116      0.66048      .   S
    Zr13   O116      1.66245      .   S
    N114   O117      0.62807      .   S
    Zr17   O117      1.63331      .   S
    N118   O119      0.65956      .   S
    Zr5    O119      1.65573      .   S
    N118   O120      0.65198      .   S
    Zr7    O120      1.64681      .   S
    N118   O121      0.62445      .   S
    Zr8    O121      1.63654      .   S
    N122   O123      0.62459      .   S
    Zr4    O123      1.63678  1_565   S
    N122   O124      0.65484      .   S
    Zr11   O124      1.65351  1_565   S
    N122   O125      0.65646  1_455   S
    Zr9    O125      1.64864  1_565   S
