# CIF file generated by openbabel 2.4.90, see http://openbabel.sf.net
data_I
_chemical_name_common ''
_cell_length_a 18.087
_cell_length_b 18.087
_cell_length_c 17.825
_cell_angle_alpha 90
_cell_angle_beta 89.999
_cell_angle_gamma 119.981
_space_group_name_H-M_alt 'P 1'
_space_group_name_Hall 'P 1'
loop_
    _symmetry_equiv_pos_as_xyz
    x,y,z
loop_
    _atom_site_label
    _atom_site_type_symbol
    _atom_site_fract_x
    _atom_site_fract_y
    _atom_site_fract_z
    _atom_site_occupancy
    N0      N    0.65492   0.15491   0.49995   1.000
    N1      N    0.15491   0.15491   0.49998   1.000
    N2      N    0.92801   0.80826   0.09083   1.000
    N3      N    0.65492   0.65492   0.99997   1.000
    N4      N    0.65492   0.15492   0.99998   1.000
    N5      N    0.15491   0.15492   0.99999   1.000
    N6      N    0.84501   0.49992   0.00000   1.000
    N7      N    0.84502   0.99924   0.99999   1.000
    N8      N    0.34501   0.49993   0.99937   1.000
    N9      N    0.34501   0.99924   0.00000   1.000
    N10     N    0.15491   0.65492   0.99998   1.000
    N11     N    0.65492   0.65492   0.49999   1.000
    N12     N    0.15491   0.65492   0.49998   1.000
    N13     N    0.42949   0.30825   0.09082   1.000
    N14     N    0.49992   0.84502   0.99996   1.000
    N15     N    0.57034   0.37859   0.90909   1.000
    N16     N    0.49992   0.84501   0.50000   1.000
    N17     N    0.92801   0.30825   0.09083   1.000
    N18     N    0.49992   0.34500   0.50000   1.000
    N19     N    0.99923   0.34500   0.50000   1.000
    N20     N    0.99924   0.84501   0.50000   1.000
    N21     N    0.84501   0.49992   0.49997   1.000
    N22     N    0.07034   0.87860   0.90908   1.000
    N23     N    0.07034   0.37859   0.90909   1.000
    N24     N    0.34501   0.49993   0.49997   1.000
    N25     N    0.84501   0.99924   0.49997   1.000
    N26     N    0.34501   0.99924   0.49997   1.000
    Zr27    Zr   0.00002   0.50002   0.99998   1.000
    O28     O    0.02886   0.46815   0.96596   1.000
    O29     O    0.97075   0.43932   0.03399   1.000
    Zr30    Zr   0.66672   0.83330   0.74998   1.000
    O31     O    0.65398   0.77432   0.67654   1.000
    O32     O    0.62040   0.84600   0.82342   1.000
    O33     O    0.62039   0.84600   0.67654   1.000
    O34     O    0.72568   0.87939   0.67652   1.000
    O35     O    0.72568   0.87939   0.82344   1.000
    O36     O    0.65398   0.77432   0.82342   1.000
    Zr37    Zr   0.00002   0.00002   0.49999   1.000
    Zr38    Zr   0.50002   0.50002   0.99998   1.000
    O39     O    0.47113   0.43932   0.03399   1.000
    O40     O    0.52887   0.46815   0.96596   1.000
    Zr41    Zr   0.33330   0.66673   0.24999   1.000
    O42     O    0.37956   0.72569   0.17653   1.000
    O43     O    0.37956   0.72569   0.32345   1.000
    O44     O    0.27431   0.65399   0.17654   1.000
    O45     O    0.34600   0.62040   0.32343   1.000
    O46     O    0.27431   0.65398   0.32343   1.000
    O47     O    0.34600   0.62040   0.17639   1.000
    Zr48    Zr   0.66672   0.33330   0.74998   1.000
    O49     O    0.63800   0.35439   0.80070   1.000
    O50     O    0.72568   0.37955   0.67653   1.000
    O51     O    0.62039   0.34599   0.67654   1.000
    O52     O    0.72568   0.37955   0.82344   1.000
    O53     O    0.65398   0.27431   0.67653   1.000
    O54     O    0.65398   0.27431   0.82342   1.000
    Zr55    Zr   0.33330   0.16672   0.24999   1.000
    O56     O    0.37955   0.22568   0.32345   1.000
    O57     O    0.34600   0.12022   0.32343   1.000
    O58     O    0.27431   0.15398   0.32343   1.000
    O59     O    0.34600   0.12022   0.17655   1.000
    O60     O    0.27431   0.15398   0.17654   1.000
    O61     O    0.36195   0.21649   0.19924   1.000
    Zr62    Zr   0.50003   0.00002   0.49999   1.000
    Zr63    Zr   0.50003   0.50003   0.49999   1.000
    Zr64    Zr   0.00002   0.50003   0.49999   1.000
    Zr65    Zr   0.00003   0.00002   0.99999   1.000
    O66     O    0.02887   0.96815   0.96596   1.000
    O67     O    0.97076   0.93932   0.03400   1.000
    Zr68    Zr   0.50003   0.00002   0.99999   1.000
    Zr69    Zr   0.16672   0.83330   0.74998   1.000
    O70     O    0.15398   0.77431   0.67654   1.000
    O71     O    0.13799   0.85439   0.80070   1.000
    O72     O    0.12022   0.84600   0.67654   1.000
    O73     O    0.22568   0.87939   0.67652   1.000
    O74     O    0.22568   0.87939   0.82344   1.000
    O75     O    0.15398   0.77432   0.82343   1.000
    Zr76    Zr   0.83331   0.66673   0.24999   1.000
    O77     O    0.87939   0.72568   0.32345   1.000
    O78     O    0.86158   0.71650   0.19925   1.000
    O79     O    0.77432   0.65398   0.32344   1.000
    O80     O    0.84600   0.62040   0.32343   1.000
    O81     O    0.77432   0.65398   0.17654   1.000
    O82     O    0.84600   0.62040   0.17655   1.000
    Zr83    Zr   0.16671   0.33329   0.74998   1.000
    O84     O    0.13799   0.35439   0.80070   1.000
    O85     O    0.12022   0.34599   0.67654   1.000
    O86     O    0.15397   0.27431   0.82343   1.000
    O87     O    0.22567   0.37955   0.67653   1.000
    O88     O    0.22567   0.37955   0.82328   1.000
    O89     O    0.15397   0.27431   0.67654   1.000
    Zr90    Zr   0.83331   0.16672   0.24999   1.000
    O91     O    0.84601   0.12022   0.17654   1.000
    O92     O    0.87939   0.22568   0.32345   1.000
    O93     O    0.84601   0.12022   0.32343   1.000
    O94     O    0.77432   0.15398   0.32343   1.000
    O95     O    0.86158   0.21649   0.19925   1.000
    O96     O    0.77432   0.15398   0.17654   1.000
    O97     O    0.95026   0.49718   0.99716   1.000
    O98     O    0.95307   0.00264   0.49716   1.000
    O99     O    0.94920   0.50000   0.49999   1.000
    O100    O    0.04975   0.54694   0.49716   1.000
    O101    O    0.04693   0.04975   0.99716   1.000
    O102    O    0.95027   0.99701   0.99716   1.000
    O103    O    0.99982   0.94920   0.49999   1.000
    O104    O    0.00264   0.45307   0.50282   1.000
    O105    O    0.05080   0.55081   0.99998   1.000
    O106    O    0.54975   0.54693   0.00280   1.000
    O107    O    0.45307   0.50281   0.00265   1.000
    O108    O    0.49718   0.45026   0.49717   1.000
    O109    O    0.54694   0.54975   0.50281   1.000
    O110    O    0.45026   0.49718   0.50281   1.000
    O111    O    0.44921   0.99983   0.99999   1.000
    O112    O    0.49719   0.95027   0.00281   1.000
    O113    O    0.50282   0.95307   0.50282   1.000
    O114    O    0.45308   0.00264   0.49716   1.000
    O115    O    0.54976   0.04693   0.00281   1.000
    O116    O    0.54694   0.04975   0.50280   1.000
    O117    O    0.04693   0.04975   0.50281   1.000
loop_
    _geom_bond_atom_site_label_1
    _geom_bond_atom_site_label_2
    _geom_bond_distance
    _geom_bond_site_symmetry_2
    _ccdc_geom_bond_type
    Zr27   O28       1.12815      .   S
    N23    O28       2.33001      .   S
    Zr27   O29       1.12800  1_456   S
    N17    O29       2.32643      .   S
    Zr30   O31       1.63081      .   S
    N11    O31       3.82157      .   S
    Zr30   O32       1.63120      .   S
    N14    O32       3.82253      .   S
    Zr30   O33       1.63123      .   S
    N16    O33       3.82261      .   S
    Zr30   O34       1.63033      .   S
    N25    O34       3.81913      .   S
    Zr30   O35       1.63036      .   S
    N7     O35       3.81918      .   S
    Zr30   O36       1.63079      .   S
    N3     O36       3.82154      .   S
    Zr38   O39       1.12813  1_556   S
    N13    O39       2.33004      .   S
    Zr38   O40       1.12816      .   S
    N15    O40       2.33005      .   S
    Zr41   O42       1.63096      .   S
    N14    O42       3.82197  1_556   S
    Zr41   O43       1.63091      .   S
    N16    O43       3.82176      .   S
    Zr41   O44       1.63087      .   S
    N10    O44       3.82172  1_556   S
    Zr41   O45       1.63122      .   S
    N24    O45       3.82258      .   S
    Zr41   O46       1.63079      .   S
    N12    O46       3.82151      .   S
    Zr41   O47       1.63349      .   S
    N8     O47       3.82958  1_556   S
    Zr48   O49       1.19621      .   S
    N15    O49       2.44064      .   S
    Zr48   O50       1.63090      .   S
    N21    O50       3.82177      .   S
    Zr48   O51       1.63120      .   S
    N18    O51       3.82255      .   S
    Zr48   O52       1.63098      .   S
    N6     O52       3.82199  1_554   S
    Zr48   O53       1.63094      .   S
    N0     O53       3.82199      .   S
    Zr48   O54       1.63074      .   S
    N4     O54       3.82169      .   S
    Zr55   O56       1.63092      .   S
    N18    O56       3.82181      .   S
    Zr55   O57       1.63300      .   S
    N26    O57       3.82776  1_565   S
    Zr55   O58       1.63079      .   S
    N1     O58       3.82152      .   S
    Zr55   O59       1.63303      .   S
    N9     O59       3.82787  1_565   S
    Zr55   O60       1.63091      .   S
    N5     O60       3.82170  1_556   S
    Zr55   O61       1.19626      .   S
    N13    O61       2.44026      .   S
    Zr65   O66       1.12814  1_545   S
    N22    O66       2.33000      .   S
    Zr65   O67       1.12793  1_446   S
    N2     O67       2.32629      .   S
    Zr69   O70       1.63080      .   S
    N12    O70       3.82156      .   S
    Zr69   O71       1.19620      .   S
    N22    O71       2.44063      .   S
    Zr69   O72       1.63301      .   S
    N20    O72       3.82780  1_655   S
    Zr69   O73       1.63033      .   S
    N26    O73       3.81914      .   S
    Zr69   O74       1.63040      .   S
    N9     O74       3.81930  1_554   S
    Zr69   O75       1.63081      .   S
    N10    O75       3.82161      .   S
    Zr76   O77       1.63035      .   S
    N20    O77       3.81913      .   S
    Zr76   O78       1.19578      .   S
    N2     O78       2.43722      .   S
    Zr76   O79       1.63079      .   S
    N11    O79       3.82152      .   S
    Zr76   O80       1.63122      .   S
    N21    O80       3.82257      .   S
    Zr76   O81       1.63089      .   S
    N3     O81       3.82181  1_556   S
    Zr76   O82       1.63123      .   S
    N6     O82       3.82263      .   S
    Zr83   O84       1.19624      .   S
    N23    O84       2.44073      .   S
    Zr83   O85       1.63302      .   S
    N19    O85       3.82786  1_655   S
    Zr83   O86       1.63082      .   S
    N5     O86       3.82159      .   S
    Zr83   O87       1.63090      .   S
    N24    O87       3.82178      .   S
    Zr83   O88       1.62872      .   S
    N8     O88       3.81506      .   S
    Zr83   O89       1.63080      .   S
    N1     O89       3.82156      .   S
    Zr90   O91       1.63306      .   S
    N7     O91       3.82799  1_566   S
    Zr90   O92       1.63031      .   S
    N19    O92       3.81903      .   S
    Zr90   O93       1.63300      .   S
    N25    O93       3.82776  1_565   S
    Zr90   O94       1.63066      .   S
    N0     O94       3.82110      .   S
    Zr90   O95       1.19577      .   S
    N17    O95       2.43720      .   S
    Zr90   O96       1.63088      .   S
    N4     O96       3.82175  1_556   S
    Zr27   O97       0.87681  1_455   S
    N6     O97       1.92950  1_554   S
    N25    O98       1.92513  1_565   S
    Zr37   O98       0.87519  1_455   S
    Zr64   O99       0.91887  1_455   S
    N21    O99       1.88379      .   S
    Zr64   O100      0.87675      .   S
    N12    O100      1.92930      .   S
    Zr65   O101      0.87673      .   S
    N5     O101      1.92927      .   S
    Zr65   O102      0.87548  1_445   S
    N7     O102      1.92479      .   S
    N20    O103      1.87922      .   S
    Zr37   O103      0.91735  1_445   S
    N19    O104      1.92532  1_655   S
    Zr64   O104      0.87530      .   S
    N10    O105      1.88365      .   S
    Zr27   O105      0.91880      .   S
    Zr38   O106      0.87680  1_556   S
    N3     O106      1.92937  1_556   S
    Zr38   O107      0.87678  1_556   S
    N8     O107      1.92991  1_556   S
    Zr63   O108      0.87695      .   S
    N18    O108      1.92972      .   S
    Zr63   O109      0.87675      .   S
    N11    O109      1.92931      .   S
    Zr63   O110      0.87693      .   S
    N24    O110      1.92970      .   S
    Zr68   O111      0.91746  1_545   S
    N9     O111      1.87941  1_554   S
    Zr68   O112      0.87685  1_546   S
    N14    O112      1.92955  1_556   S
    Zr62   O113      0.87685  1_545   S
    N16    O113      1.92955      .   S
    Zr62   O114      0.87529      .   S
    N26    O114      1.92529  1_565   S
    N4     O115      1.92928  1_556   S
    Zr68   O115      0.87674  1_556   S
    N0     O116      1.92932      .   S
    Zr62   O116      0.87674      .   S
    N1     O117      1.92931      .   S
    Zr37   O117      0.87675      .   S
