# CIF file generated by openbabel 2.4.90, see http://openbabel.sf.net
data_I
_chemical_name_common ''
_cell_length_a 18.087
_cell_length_b 18.087
_cell_length_c 17.825
_cell_angle_alpha 90
_cell_angle_beta 89.999
_cell_angle_gamma 119.981
_space_group_name_H-M_alt 'P 1'
_space_group_name_Hall 'P 1'
loop_
    _symmetry_equiv_pos_as_xyz
    x,y,z
loop_
    _atom_site_label
    _atom_site_type_symbol
    _atom_site_fract_x
    _atom_site_fract_y
    _atom_site_fract_z
    _atom_site_occupancy
    N0      N    0.65492   0.15491   0.49995   1.000
    N1      N    0.15491   0.15491   0.49998   1.000
    N2      N    0.92801   0.80826   0.09083   1.000
    N3      N    0.65492   0.65492   0.99997   1.000
    N4      N    0.65492   0.15492   0.99998   1.000
    N5      N    0.15491   0.15492   0.99999   1.000
    N6      N    0.84501   0.49992   0.00000   1.000
    N7      N    0.84502   0.99924   0.99999   1.000
    N8      N    0.34501   0.49993   0.99937   1.000
    N9      N    0.34501   0.99924   0.00000   1.000
    N10     N    0.15491   0.65492   0.99998   1.000
    N11     N    0.65492   0.65492   0.49999   1.000
    N12     N    0.15491   0.65492   0.49998   1.000
    N13     N    0.42949   0.30825   0.09082   1.000
    N14     N    0.49992   0.84502   0.99996   1.000
    N15     N    0.57034   0.37859   0.90909   1.000
    N16     N    0.49992   0.84501   0.50000   1.000
    N17     N    0.92801   0.30825   0.09083   1.000
    N18     N    0.49992   0.34500   0.50000   1.000
    N19     N    0.99923   0.34500   0.50000   1.000
    N20     N    0.99924   0.84501   0.50000   1.000
    N21     N    0.84501   0.49992   0.49997   1.000
    N22     N    0.07034   0.87860   0.90908   1.000
    N23     N    0.07034   0.37859   0.90909   1.000
    N24     N    0.34501   0.49993   0.49997   1.000
    N25     N    0.84501   0.99924   0.49997   1.000
    N26     N    0.34501   0.99924   0.49997   1.000
    Zr27    Zr   0.00002   0.50002   0.99998   1.000
    O28     O    0.94851   0.48874   0.98868   1.000
    O29     O    0.04024   0.55152   0.98868   1.000
    O30     O    0.02886   0.46815   0.96596   1.000
    O31     O    0.97075   0.43932   0.03399   1.000
    O32     O    0.94427   0.49999   0.99999   1.000
    O33     O    0.05151   0.54025   0.01128   1.000
    O34     O    0.95976   0.51126   0.01129   1.000
    O35     O    0.05573   0.55574   0.99998   1.000
    Zr36    Zr   0.66672   0.83330   0.74998   1.000
    O37     O    0.65398   0.77432   0.67654   1.000
    O38     O    0.62040   0.84600   0.82342   1.000
    O39     O    0.62039   0.84600   0.67654   1.000
    O40     O    0.72568   0.87939   0.67652   1.000
    O41     O    0.72568   0.87939   0.82344   1.000
    O42     O    0.65398   0.77432   0.82342   1.000
    Zr43    Zr   0.00002   0.00002   0.49999   1.000
    O44     O    0.95976   0.01109   0.48869   1.000
    O45     O    0.94427   0.99982   0.49999   1.000
    O46     O    0.99982   0.94427   0.49999   1.000
    O47     O    0.01109   0.95976   0.51129   1.000
    O48     O    0.05573   0.05573   0.49999   1.000
    O49     O    0.98856   0.94851   0.48869   1.000
    O50     O    0.94851   0.98856   0.51129   1.000
    O51     O    0.04024   0.05151   0.51128   1.000
    O52     O    0.05151   0.04024   0.48869   1.000
    Zr53    Zr   0.50002   0.50002   0.99998   1.000
    O54     O    0.44851   0.48874   0.98853   1.000
    O55     O    0.44427   0.49999   0.99983   1.000
    O56     O    0.47113   0.43932   0.03399   1.000
    O57     O    0.52887   0.46815   0.96596   1.000
    O58     O    0.54024   0.55152   0.98868   1.000
    O59     O    0.55152   0.54024   0.01128   1.000
    O60     O    0.55573   0.55573   0.99998   1.000
    O61     O    0.45976   0.51126   0.01113   1.000
    Zr62    Zr   0.33330   0.66673   0.24999   1.000
    O63     O    0.37956   0.72569   0.17653   1.000
    O64     O    0.37956   0.72569   0.32345   1.000
    O65     O    0.27431   0.65399   0.17654   1.000
    O66     O    0.34600   0.62040   0.32343   1.000
    O67     O    0.27431   0.65398   0.32343   1.000
    O68     O    0.34600   0.62040   0.17639   1.000
    Zr69    Zr   0.66672   0.33330   0.74998   1.000
    O70     O    0.63800   0.35439   0.80070   1.000
    O71     O    0.72568   0.37955   0.67653   1.000
    O72     O    0.62039   0.34599   0.67654   1.000
    O73     O    0.72568   0.37955   0.82344   1.000
    O74     O    0.65398   0.27431   0.67653   1.000
    O75     O    0.65398   0.27431   0.82342   1.000
    Zr76    Zr   0.33330   0.16672   0.24999   1.000
    O77     O    0.37955   0.22568   0.32345   1.000
    O78     O    0.34600   0.12022   0.32343   1.000
    O79     O    0.27431   0.15398   0.32343   1.000
    O80     O    0.34600   0.12022   0.17655   1.000
    O81     O    0.27431   0.15398   0.17654   1.000
    O82     O    0.36195   0.21649   0.19924   1.000
    Zr83    Zr   0.50003   0.00002   0.49999   1.000
    O84     O    0.45976   0.01109   0.48869   1.000
    O85     O    0.44851   0.98856   0.51129   1.000
    O86     O    0.50000   0.94427   0.49999   1.000
    O87     O    0.44427   0.99982   0.49999   1.000
    O88     O    0.48874   0.94851   0.48869   1.000
    O89     O    0.51126   0.95976   0.51129   1.000
    O90     O    0.55574   0.05573   0.49998   1.000
    O91     O    0.54025   0.05151   0.51127   1.000
    O92     O    0.55152   0.04024   0.48868   1.000
    Zr93    Zr   0.50003   0.50003   0.49999   1.000
    O94     O    0.54025   0.55152   0.51128   1.000
    O95     O    0.55152   0.54024   0.48869   1.000
    O96     O    0.48874   0.44851   0.48869   1.000
    O97     O    0.49999   0.44427   0.49999   1.000
    O98     O    0.44427   0.49999   0.49999   1.000
    O99     O    0.44851   0.48874   0.51129   1.000
    O100    O    0.55574   0.55574   0.49999   1.000
    O101    O    0.45976   0.51127   0.48869   1.000
    O102    O    0.51126   0.45976   0.51129   1.000
    Zr103   Zr   0.00002   0.50003   0.49999   1.000
    O104    O    0.05151   0.54024   0.48869   1.000
    O105    O    0.04024   0.55152   0.51128   1.000
    O106    O    0.98856   0.44851   0.48869   1.000
    O107    O    0.94851   0.48874   0.51129   1.000
    O108    O    0.95976   0.51126   0.48869   1.000
    O109    O    0.94427   0.49999   0.49999   1.000
    O110    O    0.99982   0.44427   0.49999   1.000
    O111    O    0.05573   0.55574   0.49999   1.000
    O112    O    0.01109   0.45976   0.51129   1.000
    Zr113   Zr   0.00003   0.00002   0.99999   1.000
    O114    O    0.05152   0.04024   0.01128   1.000
    O115    O    0.05573   0.05573   0.99999   1.000
    O116    O    0.95976   0.01109   0.01129   1.000
    O117    O    0.02887   0.96815   0.96596   1.000
    O118    O    0.94428   0.99982   0.99999   1.000
    O119    O    0.94851   0.98856   0.98869   1.000
    O120    O    0.04024   0.05151   0.98869   1.000
    O121    O    0.97076   0.93932   0.03400   1.000
    Zr122   Zr   0.50003   0.00002   0.99999   1.000
    O123    O    0.48874   0.94851   0.01128   1.000
    O124    O    0.50000   0.94428   0.99998   1.000
    O125    O    0.51127   0.95976   0.98868   1.000
    O126    O    0.54025   0.05152   0.98869   1.000
    O127    O    0.55152   0.04024   0.01128   1.000
    O128    O    0.55574   0.05573   0.99999   1.000
    O129    O    0.44428   0.99982   0.99999   1.000
    O130    O    0.44852   0.98857   0.98869   1.000
    O131    O    0.45976   0.01109   0.01129   1.000
    Zr132   Zr   0.99999   0.36405   0.20000   1.000
    Zr133   Zr   0.99999   0.86405   0.20000   1.000
    Zr134   Zr   0.50000   0.36405   0.30000   1.000
    Zr135   Zr   0.16672   0.83330   0.74998   1.000
    O136    O    0.15398   0.77431   0.67654   1.000
    O137    O    0.13799   0.85439   0.80070   1.000
    O138    O    0.12022   0.84600   0.67654   1.000
    O139    O    0.22568   0.87939   0.67652   1.000
    O140    O    0.22568   0.87939   0.82344   1.000
    O141    O    0.15398   0.77432   0.82343   1.000
    Zr142   Zr   0.83331   0.66673   0.24999   1.000
    O143    O    0.87939   0.72568   0.32345   1.000
    O144    O    0.86158   0.71650   0.19925   1.000
    O145    O    0.77432   0.65398   0.32344   1.000
    O146    O    0.84600   0.62040   0.32343   1.000
    O147    O    0.77432   0.65398   0.17654   1.000
    O148    O    0.84600   0.62040   0.17655   1.000
    Zr149   Zr   0.16671   0.33329   0.74998   1.000
    O150    O    0.13799   0.35439   0.80070   1.000
    O151    O    0.12022   0.34599   0.67654   1.000
    O152    O    0.15397   0.27431   0.82343   1.000
    O153    O    0.22567   0.37955   0.67653   1.000
    O154    O    0.22567   0.37955   0.82328   1.000
    O155    O    0.15397   0.27431   0.67654   1.000
    Zr156   Zr   0.83331   0.16672   0.24999   1.000
    O157    O    0.84601   0.12022   0.17654   1.000
    O158    O    0.87939   0.22568   0.32345   1.000
    O159    O    0.84601   0.12022   0.32343   1.000
    O160    O    0.77432   0.15398   0.32343   1.000
    O161    O    0.86158   0.21649   0.19925   1.000
    O162    O    0.77432   0.15398   0.17654   1.000
loop_
    _geom_bond_atom_site_label_1
    _geom_bond_atom_site_label_2
    _geom_bond_distance
    _geom_bond_site_symmetry_2
    _ccdc_geom_bond_type
    Zr27   O28       0.87181  1_455   S
    N6     O28       1.99102  1_554   S
    Zr27   O29       0.87180      .   S
    N10    O29       1.99090      .   S
    Zr27   O30       1.12815      .   S
    N23    O30       2.33001      .   S
    Zr27   O31       1.12800  1_456   S
    N17    O31       2.32643      .   S
    Zr27   O32       1.00800  1_455   S
    N6     O32       1.79459  1_554   S
    Zr27   O33       0.87184  1_556   S
    N10    O33       1.99086  1_556   S
    Zr27   O34       0.87185  1_456   S
    N6     O34       1.99100      .   S
    Zr27   O35       1.00793      .   S
    N10    O35       1.79452      .   S
    Zr36   O37       1.63081      .   S
    N11    O37       3.82157      .   S
    Zr36   O38       1.63120      .   S
    N14    O38       3.82253      .   S
    Zr36   O39       1.63123      .   S
    N16    O39       3.82261      .   S
    Zr36   O40       1.63033      .   S
    N25    O40       3.81913      .   S
    Zr36   O41       1.63036      .   S
    N7     O41       3.81918      .   S
    Zr36   O42       1.63079      .   S
    N3     O42       3.82154      .   S
    Zr43   O44       0.86988  1_455   S
    N25    O44       1.98719  1_565   S
    Zr43   O45       1.00650  1_445   S
    N25    O45       1.79004      .   S
    Zr43   O46       1.00652  1_445   S
    N20    O46       1.79006      .   S
    Zr43   O47       0.86986  1_545   S
    N20    O47       1.98724  1_655   S
    Zr43   O48       1.00790      .   S
    N1     O48       1.79443      .   S
    Zr43   O49       0.87094  1_445   S
    N20    O49       1.98579      .   S
    Zr43   O50       0.87091  1_445   S
    N25    O50       1.98579      .   S
    Zr43   O51       0.87176      .   S
    N1     O51       1.99081      .   S
    Zr43   O52       0.87179      .   S
    N1     O52       1.99080      .   S
    Zr53   O54       0.87256      .   S
    N8     O54       1.99037      .   S
    Zr53   O55       1.00813      .   S
    N8     O55       1.79478      .   S
    Zr53   O56       1.12813  1_556   S
    N13    O56       2.33004      .   S
    Zr53   O57       1.12816      .   S
    N15    O57       2.33005      .   S
    Zr53   O58       0.87180      .   S
    N3     O58       1.99089      .   S
    Zr53   O59       0.87184  1_556   S
    N3     O59       1.99086  1_556   S
    Zr53   O60       1.00793      .   S
    N3     O60       1.79451      .   S
    Zr53   O61       0.87131  1_556   S
    N8     O61       1.99205  1_556   S
    Zr62   O63       1.63096      .   S
    N14    O63       3.82197  1_556   S
    Zr62   O64       1.63091      .   S
    N16    O64       3.82176      .   S
    Zr62   O65       1.63087      .   S
    N10    O65       3.82172  1_556   S
    Zr62   O66       1.63122      .   S
    N24    O66       3.82258      .   S
    Zr62   O67       1.63079      .   S
    N12    O67       3.82151      .   S
    Zr62   O68       1.63349      .   S
    N8     O68       3.82958  1_556   S
    Zr69   O70       1.19621      .   S
    N15    O70       2.44064      .   S
    Zr69   O71       1.63090      .   S
    N21    O71       3.82177      .   S
    Zr69   O72       1.63120      .   S
    N18    O72       3.82255      .   S
    Zr69   O73       1.63098      .   S
    N6     O73       3.82199  1_554   S
    Zr69   O74       1.63094      .   S
    N0     O74       3.82199      .   S
    Zr69   O75       1.63074      .   S
    N4     O75       3.82169      .   S
    Zr76   O77       1.63092      .   S
    N18    O77       3.82181      .   S
    Zr76   O78       1.63300      .   S
    N26    O78       3.82776  1_565   S
    Zr76   O79       1.63079      .   S
    N1     O79       3.82152      .   S
    Zr76   O80       1.63303      .   S
    N9     O80       3.82787  1_565   S
    Zr76   O81       1.63091      .   S
    N5     O81       3.82170  1_556   S
    Zr76   O82       1.19626      .   S
    N13    O82       2.44026      .   S
    Zr83   O84       0.86997      .   S
    N26    O84       1.98736  1_565   S
    Zr83   O85       0.87100  1_545   S
    N26    O85       1.98596      .   S
    Zr83   O86       1.00804  1_545   S
    N16    O86       1.79463      .   S
    Zr83   O87       1.00660  1_545   S
    N26    O87       1.79020      .   S
    Zr83   O88       0.87185  1_545   S
    N16    O88       1.99105      .   S
    Zr83   O89       0.87185  1_545   S
    N16    O89       1.99107      .   S
    Zr83   O90       1.00790      .   S
    N0     O90       1.79444      .   S
    Zr83   O91       0.87172      .   S
    N0     O91       1.99087      .   S
    Zr83   O92       0.87184      .   S
    N0     O92       1.99076      .   S
    Zr93   O94       0.87176      .   S
    N11    O94       1.99082      .   S
    Zr93   O95       0.87180      .   S
    N11    O95       1.99080      .   S
    Zr93   O96       0.87195      .   S
    N18    O96       1.99122      .   S
    Zr93   O97       1.00814      .   S
    N18    O97       1.79481      .   S
    Zr93   O98       1.00813      .   S
    N24    O98       1.79478      .   S
    Zr93   O99       0.87191      .   S
    N24    O99       1.99122      .   S
    Zr93   O100      1.00790      .   S
    N11    O100      1.79443      .   S
    Zr93   O101      0.87196      .   S
    N24    O101      1.99119      .   S
    Zr93   O102      0.87195      .   S
    N18    O102      1.99124      .   S
    Zr103  O104      0.87179      .   S
    N12    O104      1.99080      .   S
    Zr103  O105      0.87176      .   S
    N12    O105      1.99081      .   S
    Zr103  O106      0.87105  1_455   S
    N19    O106      1.98594      .   S
    Zr103  O107      0.87182  1_455   S
    N21    O107      1.99106      .   S
    Zr103  O108      0.87187  1_455   S
    N21    O108      1.99104      .   S
    Zr103  O109      1.00804  1_455   S
    N21    O109      1.79463      .   S
    Zr103  O110      1.00661  1_455   S
    N19    O110      1.79023      .   S
    Zr103  O111      1.00790      .   S
    N12    O111      1.79443      .   S
    Zr103  O112      0.86995      .   S
    N19    O112      1.98741  1_655   S
    Zr113  O114      0.87173  1_556   S
    N5     O114      1.99076  1_556   S
    Zr113  O115      1.00789      .   S
    N5     O115      1.79439      .   S
    Zr113  O116      0.86986  1_456   S
    N7     O116      1.98727  1_566   S
    Zr113  O117      1.12814  1_545   S
    N22    O117      2.33000      .   S
    Zr113  O118      1.00652  1_445   S
    N7     O118      1.79008      .   S
    Zr113  O119      0.87098  1_445   S
    N7     O119      1.98579      .   S
    Zr113  O120      0.87175      .   S
    N5     O120      1.99078      .   S
    Zr113  O121      1.12793  1_446   S
    N2     O121      2.32629      .   S
    Zr122  O123      0.87183  1_546   S
    N14    O123      1.99108  1_556   S
    Zr122  O124      1.00805  1_545   S
    N14    O124      1.79463      .   S
    Zr122  O125      0.87187  1_545   S
    N14    O125      1.99104      .   S
    Zr122  O126      0.87176      .   S
    N4     O126      1.99079      .   S
    Zr122  O127      0.87177  1_556   S
    N4     O127      1.99078  1_556   S
    Zr122  O128      1.00789      .   S
    N4     O128      1.79440      .   S
    Zr122  O129      1.00662  1_545   S
    N9     O129      1.79025  1_554   S
    Zr122  O130      0.87106  1_545   S
    N9     O130      1.98597  1_554   S
    Zr122  O131      0.86997  1_556   S
    N9     O131      1.98742  1_565   S
    Zr135  O136      1.63080      .   S
    N12    O136      3.82156      .   S
    Zr135  O137      1.19620      .   S
    N22    O137      2.44063      .   S
    Zr135  O138      1.63301      .   S
    N20    O138      3.82780  1_655   S
    Zr135  O139      1.63033      .   S
    N26    O139      3.81914      .   S
    Zr135  O140      1.63040      .   S
    N9     O140      3.81930  1_554   S
    Zr135  O141      1.63081      .   S
    N10    O141      3.82161      .   S
    Zr142  O143      1.63035      .   S
    N20    O143      3.81913      .   S
    Zr142  O144      1.19578      .   S
    N2     O144      2.43722      .   S
    Zr142  O145      1.63079      .   S
    N11    O145      3.82152      .   S
    Zr142  O146      1.63122      .   S
    N21    O146      3.82257      .   S
    Zr142  O147      1.63089      .   S
    N3     O147      3.82181  1_556   S
    Zr142  O148      1.63123      .   S
    N6     O148      3.82263      .   S
    Zr149  O150      1.19624      .   S
    N23    O150      2.44073      .   S
    Zr149  O151      1.63302      .   S
    N19    O151      3.82786  1_655   S
    Zr149  O152      1.63082      .   S
    N5     O152      3.82159      .   S
    Zr149  O153      1.63090      .   S
    N24    O153      3.82178      .   S
    Zr149  O154      1.62872      .   S
    N8     O154      3.81506      .   S
    Zr149  O155      1.63080      .   S
    N1     O155      3.82156      .   S
    Zr156  O157      1.63306      .   S
    N7     O157      3.82799  1_566   S
    Zr156  O158      1.63031      .   S
    N19    O158      3.81903      .   S
    Zr156  O159      1.63300      .   S
    N25    O159      3.82776  1_565   S
    Zr156  O160      1.63066      .   S
    N0     O160      3.82110      .   S
    Zr156  O161      1.19577      .   S
    N17    O161      2.43720      .   S
    Zr156  O162      1.63088      .   S
    N4     O162      3.82175  1_556   S
