# CIF file generated by openbabel 2.4.90, see http://openbabel.sf.net
data_I
_chemical_name_common ''
_cell_length_a 18.087
_cell_length_b 18.087
_cell_length_c 17.825
_cell_angle_alpha 90
_cell_angle_beta 89.999
_cell_angle_gamma 119.981
_space_group_name_H-M_alt 'P 1'
_space_group_name_Hall 'P 1'
loop_
    _symmetry_equiv_pos_as_xyz
    x,y,z
loop_
    _atom_site_label
    _atom_site_type_symbol
    _atom_site_fract_x
    _atom_site_fract_y
    _atom_site_fract_z
    _atom_site_occupancy
    C0      C    0.33330   0.16672   0.24999   1.000
    C1      C    0.33330   0.66673   0.24999   1.000
    C2      C    0.83331   0.16672   0.24999   1.000
    C3      C    0.83331   0.66673   0.24999   1.000
    C4      C    0.16671   0.33329   0.74998   1.000
    C5      C    0.16672   0.83330   0.74998   1.000
    C6      C    0.66672   0.33330   0.74998   1.000
    C7      C    0.66672   0.83330   0.74998   1.000
    C8      C    0.00003   0.00002   0.99999   1.000
    C9      C    0.00002   0.50002   0.99998   1.000
    C10     C    0.50003   0.00002   0.99999   1.000
    C11     C    0.50002   0.50002   0.99998   1.000
    C12     C    0.00002   0.00002   0.49999   1.000
    C13     C    0.00002   0.50003   0.49999   1.000
    C14     C    0.50003   0.00002   0.49999   1.000
    C15     C    0.50003   0.50003   0.49999   1.000
    C16     C    0.20255   0.21174   0.09203   1.000
    C17     C    0.20257   0.71176   0.09203   1.000
    C18     C    0.70258   0.21175   0.09203   1.000
    C19     C    0.70261   0.71176   0.09201   1.000
    C20     C    0.26070   0.17771   0.03450   1.000
    C21     C    0.26070   0.67771   0.03449   1.000
    C22     C    0.76071   0.17770   0.03449   1.000
    C23     C    0.76071   0.67768   0.03447   1.000
    C24     C    0.50892   0.29712   0.09197   1.000
    C25     C    0.50892   0.79713   0.09197   1.000
    C26     C    0.00000   0.29713   0.09197   1.000
    C27     C    0.00000   0.79714   0.09190   1.000
    C28     C    0.41678   0.23927   0.03435   1.000
    C29     C    0.41678   0.73928   0.03430   1.000
    C30     C    0.91679   0.23927   0.03430   1.000
    C31     C    0.91679   0.73927   0.03436   1.000
    C32     C    0.28817   0.99080   0.09199   1.000
    C33     C    0.28816   0.49081   0.09190   1.000
    C34     C    0.78817   0.99080   0.09190   1.000
    C35     C    0.78817   0.49080   0.09199   1.000
    C36     C    0.32221   0.08297   0.03447   1.000
    C37     C    0.32221   0.58298   0.03440   1.000
    C38     C    0.82222   0.08298   0.03446   1.000
    C39     C    0.82221   0.58298   0.03447   1.000
    C40     C    0.20257   0.21174   0.40795   1.000
    C41     C    0.20257   0.71175   0.40795   1.000
    C42     C    0.70258   0.21174   0.40795   1.000
    C43     C    0.70259   0.71175   0.40796   1.000
    C44     C    0.26070   0.17769   0.46550   1.000
    C45     C    0.26070   0.67769   0.46549   1.000
    C46     C    0.76071   0.17769   0.46500   1.000
    C47     C    0.76070   0.67769   0.46550   1.000
    C48     C    0.50890   0.29711   0.40801   1.000
    C49     C    0.50891   0.79712   0.40801   1.000
    C50     C    0.00000   0.29711   0.40801   1.000
    C51     C    0.00000   0.79713   0.40801   1.000
    C52     C    0.41677   0.23926   0.46563   1.000
    C53     C    0.41677   0.73927   0.46563   1.000
    C54     C    0.91678   0.23926   0.46563   1.000
    C55     C    0.91678   0.73927   0.46563   1.000
    C56     C    0.28816   0.99079   0.40800   1.000
    C57     C    0.28816   0.49081   0.40800   1.000
    C58     C    0.78817   0.99079   0.40800   1.000
    C59     C    0.78817   0.49080   0.40800   1.000
    C60     C    0.32220   0.08297   0.46551   1.000
    C61     C    0.32221   0.58298   0.46552   1.000
    C62     C    0.82221   0.08297   0.46552   1.000
    C63     C    0.82221   0.58297   0.46550   1.000
    C64     C    0.99078   0.28818   0.90798   1.000
    C65     C    0.99079   0.78818   0.90798   1.000
    C66     C    0.49079   0.28818   0.90798   1.000
    C67     C    0.49079   0.78818   0.90798   1.000
    C68     C    0.08295   0.32218   0.96550   1.000
    C69     C    0.08296   0.82219   0.96550   1.000
    C70     C    0.58296   0.32218   0.96550   1.000
    C71     C    0.58296   0.82219   0.96550   1.000
    C72     C    0.21173   0.20258   0.90795   1.000
    C73     C    0.21173   0.70257   0.90794   1.000
    C74     C    0.71174   0.20256   0.90794   1.000
    C75     C    0.71173   0.70254   0.90793   1.000
    C76     C    0.17767   0.26070   0.96550   1.000
    C77     C    0.17769   0.76071   0.96549   1.000
    C78     C    0.67770   0.26070   0.96549   1.000
    C79     C    0.67772   0.76071   0.96547   1.000
    C80     C    0.29713   0.50891   0.90000   1.000
    C81     C    0.29713   0.00000   0.90800   1.000
    C82     C    0.79714   0.50891   0.90800   1.000
    C83     C    0.79714   0.00000   0.90800   1.000
    C84     C    0.23925   0.41678   0.96561   1.000
    C85     C    0.23925   0.91678   0.96562   1.000
    C86     C    0.73926   0.41678   0.96562   1.000
    C87     C    0.73926   0.91679   0.96561   1.000
    C88     C    0.99078   0.28817   0.59190   1.000
    C89     C    0.99079   0.78818   0.59198   1.000
    C90     C    0.49078   0.28818   0.59199   1.000
    C91     C    0.49079   0.78818   0.59198   1.000
    C92     C    0.08295   0.32217   0.53447   1.000
    C93     C    0.08296   0.82219   0.53446   1.000
    C94     C    0.58296   0.32217   0.53447   1.000
    C95     C    0.58296   0.82219   0.53440   1.000
    C96     C    0.21173   0.20256   0.59202   1.000
    C97     C    0.21173   0.70257   0.59202   1.000
    C98     C    0.71174   0.20256   0.59202   1.000
    C99     C    0.71174   0.70256   0.59202   1.000
    C100    C    0.17770   0.26070   0.53448   1.000
    C101    C    0.17770   0.76071   0.53448   1.000
    C102    C    0.67771   0.26071   0.53448   1.000
    C103    C    0.67771   0.76071   0.53448   1.000
    C104    C    0.29714   0.50891   0.59197   1.000
    C105    C    0.29713   0.00000   0.59197   1.000
    C106    C    0.79714   0.50891   0.59197   1.000
    C107    C    0.79714   0.00000   0.59197   1.000
    C108    C    0.23925   0.41678   0.53435   1.000
    C109    C    0.23926   0.91678   0.53435   1.000
    C110    C    0.73926   0.41678   0.53435   1.000
    C111    C    0.73926   0.91679   0.53435   1.000
    C112    C    0.16931   0.07978   0.10772   1.000
    C113    C    0.16932   0.57979   0.10770   1.000
    C114    C    0.66932   0.07978   0.10771   1.000
    C115    C    0.66932   0.57979   0.10771   1.000
    C116    C    0.19724   0.15821   0.05830   1.000
    C117    C    0.19725   0.65822   0.05829   1.000
    C118    C    0.69726   0.15821   0.05829   1.000
    C119    C    0.69726   0.65822   0.05828   1.000
    C120    C    0.41042   0.33070   0.10769   1.000
    C121    C    0.41042   0.83071   0.10769   1.000
    C122    C    0.91042   0.33070   0.10769   1.000
    C123    C    0.91043   0.83071   0.10769   1.000
    C124    C    0.46081   0.30265   0.05824   1.000
    C125    C    0.46081   0.80266   0.05824   1.000
    C126    C    0.96082   0.30265   0.05824   1.000
    C127    C    0.96082   0.80266   0.05824   1.000
    C128    C    0.42012   0.08947   0.10772   1.000
    C129    C    0.42011   0.58948   0.10772   1.000
    C130    C    0.92012   0.08947   0.10772   1.000
    C131    C    0.92012   0.58948   0.10772   1.000
    C132    C    0.34171   0.03900   0.05827   1.000
    C133    C    0.34171   0.53901   0.05827   1.000
    C134    C    0.84172   0.03901   0.05827   1.000
    C135    C    0.84172   0.53901   0.05827   1.000
    C136    C    0.16931   0.07977   0.39227   1.000
    C137    C    0.16931   0.57978   0.39227   1.000
    C138    C    0.66932   0.07977   0.39227   1.000
    C139    C    0.66932   0.57978   0.39227   1.000
    C140    C    0.19725   0.15820   0.44169   1.000
    C141    C    0.19725   0.65821   0.44169   1.000
    C142    C    0.69725   0.15821   0.44169   1.000
    C143    C    0.69725   0.65821   0.44169   1.000
    C144    C    0.41041   0.33069   0.39229   1.000
    C145    C    0.41041   0.83070   0.39229   1.000
    C146    C    0.91042   0.33069   0.39229   1.000
    C147    C    0.91042   0.83070   0.39229   1.000
    C148    C    0.46080   0.30264   0.44174   1.000
    C149    C    0.46081   0.80265   0.44174   1.000
    C150    C    0.96081   0.30264   0.44174   1.000
    C151    C    0.96081   0.80265   0.44174   1.000
    C152    C    0.42011   0.08947   0.39226   1.000
    C153    C    0.42011   0.58948   0.39226   1.000
    C154    C    0.92012   0.08947   0.39226   1.000
    C155    C    0.92012   0.58947   0.39226   1.000
    C156    C    0.34171   0.03900   0.44171   1.000
    C157    C    0.34171   0.53901   0.44170   1.000
    C158    C    0.84171   0.03900   0.44171   1.000
    C159    C    0.84171   0.53901   0.44171   1.000
    C160    C    0.08947   0.42011   0.89225   1.000
    C161    C    0.08947   0.92012   0.89220   1.000
    C162    C    0.58948   0.42012   0.89220   1.000
    C163    C    0.58948   0.92012   0.89220   1.000
    C164    C    0.03900   0.34171   0.94170   1.000
    C165    C    0.03900   0.84171   0.94170   1.000
    C166    C    0.53901   0.34171   0.94170   1.000
    C167    C    0.53901   0.84171   0.94170   1.000
    C168    C    0.07976   0.16931   0.89226   1.000
    C169    C    0.07977   0.66932   0.89226   1.000
    C170    C    0.57977   0.16931   0.89226   1.000
    C171    C    0.57977   0.66932   0.89226   1.000
    C172    C    0.15819   0.19725   0.94169   1.000
    C173    C    0.15820   0.69725   0.94168   1.000
    C174    C    0.65820   0.19725   0.94168   1.000
    C175    C    0.65821   0.69725   0.94160   1.000
    C176    C    0.33069   0.41040   0.89229   1.000
    C177    C    0.33069   0.91041   0.89229   1.000
    C178    C    0.83070   0.41040   0.89229   1.000
    C179    C    0.83070   0.91041   0.89229   1.000
    C180    C    0.30263   0.46080   0.94173   1.000
    C181    C    0.30264   0.96081   0.94174   1.000
    C182    C    0.80264   0.46080   0.94174   1.000
    C183    C    0.80264   0.96081   0.94170   1.000
    C184    C    0.08947   0.42011   0.60771   1.000
    C185    C    0.08947   0.92012   0.60771   1.000
    C186    C    0.58948   0.42011   0.60771   1.000
    C187    C    0.58948   0.92012   0.60771   1.000
    C188    C    0.03900   0.34170   0.55826   1.000
    C189    C    0.03900   0.84171   0.55826   1.000
    C190    C    0.53900   0.34170   0.55826   1.000
    C191    C    0.53901   0.84171   0.55826   1.000
    C192    C    0.07977   0.16931   0.60770   1.000
    C193    C    0.07977   0.66932   0.60770   1.000
    C194    C    0.57978   0.16931   0.60770   1.000
    C195    C    0.57978   0.66932   0.60770   1.000
    C196    C    0.15820   0.19725   0.55828   1.000
    C197    C    0.15820   0.69725   0.55828   1.000
    C198    C    0.65821   0.19725   0.55828   1.000
    C199    C    0.65821   0.69725   0.55828   1.000
    C200    C    0.33069   0.41040   0.60768   1.000
    C201    C    0.33069   0.91041   0.60760   1.000
    C202    C    0.83070   0.41040   0.60768   1.000
    C203    C    0.83070   0.91041   0.60760   1.000
    C204    C    0.30264   0.46080   0.55823   1.000
    C205    C    0.30264   0.96081   0.55823   1.000
    C206    C    0.80265   0.46080   0.55823   1.000
    C207    C    0.80265   0.96081   0.55823   1.000
    C208    C    0.10218   0.01199   0.09030   1.000
    C209    C    0.10218   0.51200   0.09036   1.000
    C210    C    0.60219   0.01199   0.09036   1.000
    C211    C    0.60219   0.51200   0.09036   1.000
    C212    C    0.21818   0.08840   0.16240   1.000
    C213    C    0.21818   0.58841   0.16242   1.000
    C214    C    0.71819   0.08840   0.16242   1.000
    C215    C    0.71819   0.58841   0.16242   1.000
    C216    C    0.40992   0.39795   0.09040   1.000
    C217    C    0.40992   0.89796   0.09040   1.000
    C218    C    0.90993   0.39795   0.09040   1.000
    C219    C    0.90993   0.89796   0.09040   1.000
    C220    C    0.37010   0.28181   0.16230   1.000
    C221    C    0.37010   0.78182   0.16237   1.000
    C222    C    0.87011   0.28182   0.16237   1.000
    C223    C    0.87011   0.78182   0.16237   1.000
    C224    C    0.48793   0.09014   0.09038   1.000
    C225    C    0.48793   0.59014   0.09038   1.000
    C226    C    0.98794   0.09014   0.09038   1.000
    C227    C    0.98794   0.59015   0.09038   1.000
    C228    C    0.41146   0.12971   0.16242   1.000
    C229    C    0.41145   0.62972   0.16242   1.000
    C230    C    0.91147   0.12971   0.16242   1.000
    C231    C    0.91146   0.62972   0.16242   1.000
    C232    C    0.10218   0.01198   0.40960   1.000
    C233    C    0.10218   0.51199   0.40960   1.000
    C234    C    0.60219   0.01198   0.40960   1.000
    C235    C    0.60218   0.51199   0.40960   1.000
    C236    C    0.21818   0.08839   0.33756   1.000
    C237    C    0.21818   0.58840   0.33756   1.000
    C238    C    0.71819   0.08839   0.33756   1.000
    C239    C    0.71819   0.58840   0.33756   1.000
    C240    C    0.40992   0.39795   0.40958   1.000
    C241    C    0.40992   0.89796   0.40958   1.000
    C242    C    0.90992   0.39794   0.40958   1.000
    C243    C    0.90992   0.89795   0.40958   1.000
    C244    C    0.37009   0.28181   0.33762   1.000
    C245    C    0.37009   0.78182   0.33762   1.000
    C246    C    0.87010   0.28181   0.33762   1.000
    C247    C    0.87010   0.78182   0.33762   1.000
    C248    C    0.48793   0.09014   0.40960   1.000
    C249    C    0.48793   0.59014   0.40960   1.000
    C250    C    0.98794   0.09013   0.40960   1.000
    C251    C    0.98794   0.59014   0.40960   1.000
    C252    C    0.41146   0.12971   0.33756   1.000
    C253    C    0.41145   0.62972   0.33756   1.000
    C254    C    0.91146   0.12971   0.33756   1.000
    C255    C    0.91146   0.62971   0.33756   1.000
    C256    C    0.09012   0.48793   0.90959   1.000
    C257    C    0.09012   0.98793   0.90959   1.000
    C258    C    0.59013   0.48793   0.90959   1.000
    C259    C    0.59013   0.98793   0.90959   1.000
    C260    C    0.12969   0.41145   0.83754   1.000
    C261    C    0.12969   0.91145   0.83754   1.000
    C262    C    0.62970   0.41145   0.83754   1.000
    C263    C    0.62970   0.91146   0.83754   1.000
    C264    C    0.01198   0.10216   0.90961   1.000
    C265    C    0.01198   0.60217   0.90961   1.000
    C266    C    0.51199   0.10217   0.90961   1.000
    C267    C    0.51199   0.60217   0.90961   1.000
    C268    C    0.08839   0.21817   0.83755   1.000
    C269    C    0.08839   0.71818   0.83754   1.000
    C270    C    0.58840   0.21817   0.83750   1.000
    C271    C    0.58840   0.71817   0.83754   1.000
    C272    C    0.39795   0.40992   0.90956   1.000
    C273    C    0.39795   0.90993   0.90956   1.000
    C274    C    0.89796   0.40992   0.90956   1.000
    C275    C    0.89796   0.90992   0.90956   1.000
    C276    C    0.28181   0.37010   0.83760   1.000
    C277    C    0.28182   0.87011   0.83760   1.000
    C278    C    0.78182   0.37010   0.83760   1.000
    C279    C    0.78182   0.87011   0.83760   1.000
    C280    C    0.09012   0.48792   0.59038   1.000
    C281    C    0.09012   0.98793   0.59038   1.000
    C282    C    0.59013   0.48792   0.59038   1.000
    C283    C    0.59013   0.98793   0.59038   1.000
    C284    C    0.12969   0.41144   0.66242   1.000
    C285    C    0.12969   0.91145   0.66242   1.000
    C286    C    0.62970   0.41144   0.66242   1.000
    C287    C    0.62970   0.91145   0.66242   1.000
    C288    C    0.01198   0.10217   0.59035   1.000
    C289    C    0.01198   0.60217   0.59035   1.000
    C290    C    0.51199   0.10217   0.59035   1.000
    C291    C    0.51199   0.60218   0.59035   1.000
    C292    C    0.08839   0.21817   0.66242   1.000
    C293    C    0.08839   0.71817   0.66242   1.000
    C294    C    0.58840   0.21817   0.66242   1.000
    C295    C    0.58840   0.71817   0.66242   1.000
    C296    C    0.39795   0.40992   0.59040   1.000
    C297    C    0.39796   0.90993   0.59040   1.000
    C298    C    0.89796   0.40992   0.59040   1.000
    C299    C    0.89796   0.90993   0.59040   1.000
    C300    C    0.28181   0.37010   0.66236   1.000
    C301    C    0.28182   0.87011   0.66236   1.000
    C302    C    0.78182   0.37010   0.66236   1.000
    C303    C    0.78182   0.87011   0.66236   1.000
    C304    C    0.13591   0.13592   0.00000   1.000
    C305    C    0.13590   0.63592   0.99998   1.000
    C306    C    0.63592   0.13592   0.00000   1.000
    C307    C    0.63591   0.63592   0.99998   1.000
    C308    C    0.99999   0.36405   0.20000   1.000
    C309    C    0.99999   0.86405   0.20000   1.000
    C310    C    0.50000   0.36405   0.30000   1.000
    C311    C    0.49999   0.86405   0.00000   1.000
    C312    C    0.36404   0.99997   0.99998   1.000
    C313    C    0.36403   0.49997   0.99996   1.000
    C314    C    0.86405   0.99997   0.99998   1.000
    C315    C    0.86405   0.49998   0.99998   1.000
    C316    C    0.13591   0.13591   0.49998   1.000
    C317    C    0.13591   0.63592   0.49998   1.000
    C318    C    0.63592   0.13591   0.49998   1.000
    C319    C    0.63591   0.63592   0.49998   1.000
    C320    C    0.99998   0.36404   0.49996   1.000
    C321    C    0.99998   0.86405   0.49996   1.000
    C322    C    0.49999   0.36404   0.49996   1.000
    C323    C    0.49999   0.86405   0.49996   1.000
    C324    C    0.36404   0.99997   0.50000   1.000
    C325    C    0.36403   0.49997   0.50000   1.000
    C326    C    0.86404   0.99997   0.50000   1.000
    C327    C    0.86404   0.49997   0.50000   1.000
    O328    O    0.48040   0.83335   0.02912   1.000
    O329    O    0.51950   0.85288   0.97085   1.000
    O330    O    0.43880   0.77097   0.04627   1.000
    O331    O    0.93880   0.27096   0.04627   1.000
    O332    O    0.43879   0.27096   0.04630   1.000
    O333    O    0.93881   0.77096   0.04630   1.000
    O334    O    0.33196   0.56100   0.04634   1.000
    O335    O    0.83197   0.06099   0.04637   1.000
    O336    O    0.72899   0.66795   0.04637   1.000
    O337    O    0.33196   0.06099   0.04637   1.000
    O338    O    0.83196   0.56099   0.04637   1.000
    O339    O    0.72898   0.16796   0.04639   1.000
    O340    O    0.22898   0.66796   0.04639   1.000
    O341    O    0.22897   0.16796   0.04640   1.000
    O342    O    0.48486   0.29989   0.07511   1.000
    O343    O    0.43561   0.31667   0.08297   1.000
    O344    O    0.48486   0.79989   0.07511   1.000
    O345    O    0.43561   0.81668   0.08297   1.000
    O346    O    0.98041   0.79990   0.07507   1.000
    O347    O    0.93562   0.81668   0.08297   1.000
    O348    O    0.98041   0.29989   0.07511   1.000
    O349    O    0.93562   0.31668   0.08297   1.000
    O350    O    0.31494   0.01490   0.07513   1.000
    O351    O    0.38091   0.06424   0.08300   1.000
    O352    O    0.35287   0.01949   0.02913   1.000
    O353    O    0.31493   0.51491   0.07508   1.000
    O354    O    0.38091   0.56425   0.08300   1.000
    O355    O    0.35287   0.51949   0.02912   1.000
    O356    O    0.81495   0.01491   0.07508   1.000
    O357    O    0.88092   0.06424   0.08300   1.000
    O358    O    0.85288   0.01949   0.02913   1.000
    O359    O    0.81495   0.51491   0.07513   1.000
    O360    O    0.88092   0.56424   0.08300   1.000
    O361    O    0.85288   0.51950   0.02913   1.000
    O362    O    0.69994   0.68499   0.07514   1.000
    O363    O    0.68329   0.61900   0.08299   1.000
    O364    O    0.66659   0.64707   0.02913   1.000
    O365    O    0.19991   0.68499   0.07516   1.000
    O366    O    0.18328   0.61901   0.08300   1.000
    O367    O    0.16658   0.64707   0.02914   1.000
    O368    O    0.69992   0.18498   0.07516   1.000
    O369    O    0.68329   0.11900   0.08300   1.000
    O370    O    0.66659   0.14707   0.02915   1.000
    O371    O    0.19990   0.18498   0.07517   1.000
    O372    O    0.18328   0.11900   0.08301   1.000
    O373    O    0.16658   0.14706   0.02915   1.000
    O374    O    0.13575   0.04588   0.09901   1.000
    O375    O    0.05110   0.00600   0.04515   1.000
    O376    O    0.13575   0.54589   0.09903   1.000
    O377    O    0.05110   0.50601   0.04517   1.000
    O378    O    0.63576   0.04589   0.09903   1.000
    O379    O    0.55111   0.00601   0.04518   1.000
    O380    O    0.63576   0.54589   0.09903   1.000
    O381    O    0.55110   0.50601   0.04517   1.000
    O382    O    0.45402   0.08981   0.09905   1.000
    O383    O    0.49398   0.04508   0.04519   1.000
    O384    O    0.45402   0.58981   0.09905   1.000
    O385    O    0.49398   0.54508   0.04518   1.000
    O386    O    0.95403   0.08980   0.09905   1.000
    O387    O    0.99398   0.04508   0.04519   1.000
    O388    O    0.95403   0.58981   0.09905   1.000
    O389    O    0.99398   0.54508   0.04518   1.000
    O390    O    0.41017   0.36433   0.09904   1.000
    O391    O    0.45497   0.44899   0.04519   1.000
    O392    O    0.41017   0.86433   0.09904   1.000
    O393    O    0.45498   0.94899   0.04520   1.000
    O394    O    0.91018   0.36433   0.09904   1.000
    O395    O    0.95497   0.44899   0.04519   1.000
    O396    O    0.91018   0.86433   0.09904   1.000
    O397    O    0.95498   0.94899   0.04520   1.000
    O398    O    0.39026   0.30626   0.13500   1.000
    O399    O    0.39026   0.80627   0.13503   1.000
    O400    O    0.89027   0.30626   0.13503   1.000
    O401    O    0.89027   0.80626   0.13503   1.000
    O402    O    0.19375   0.58410   0.13506   1.000
    O403    O    0.69376   0.58410   0.13507   1.000
    O404    O    0.69376   0.08409   0.13507   1.000
    O405    O    0.19375   0.08409   0.13506   1.000
    O406    O    0.91579   0.60960   0.13507   1.000
    O407    O    0.91580   0.10959   0.13507   1.000
    O408    O    0.41578   0.60960   0.13507   1.000
    O409    O    0.41579   0.10959   0.13507   1.000
    O410    O    0.35170   0.22427   0.20615   1.000
    O411    O    0.35170   0.72428   0.20618   1.000
    O412    O    0.85171   0.22427   0.20618   1.000
    O413    O    0.85171   0.72427   0.20618   1.000
    O414    O    0.27574   0.12756   0.20620   1.000
    O415    O    0.87239   0.64822   0.20620   1.000
    O416    O    0.77575   0.12756   0.20620   1.000
    O417    O    0.87239   0.14822   0.20620   1.000
    O418    O    0.37238   0.64822   0.20620   1.000
    O419    O    0.37238   0.14822   0.20620   1.000
    O420    O    0.27574   0.62757   0.20620   1.000
    O421    O    0.77575   0.62757   0.20620   1.000
    O422    O    0.27574   0.62756   0.29378   1.000
    O423    O    0.37238   0.64822   0.29378   1.000
    O424    O    0.35170   0.72427   0.29380   1.000
    O425    O    0.37238   0.14821   0.29378   1.000
    O426    O    0.27574   0.12755   0.29378   1.000
    O427    O    0.35170   0.22426   0.29380   1.000
    O428    O    0.77575   0.62756   0.29378   1.000
    O429    O    0.87239   0.64822   0.29378   1.000
    O430    O    0.85171   0.72427   0.29380   1.000
    O431    O    0.87239   0.14821   0.29378   1.000
    O432    O    0.77575   0.12756   0.29378   1.000
    O433    O    0.85171   0.22427   0.29380   1.000
    O434    O    0.91579   0.10959   0.36491   1.000
    O435    O    0.41578   0.10959   0.36491   1.000
    O436    O    0.19375   0.08408   0.36492   1.000
    O437    O    0.19374   0.58409   0.36492   1.000
    O438    O    0.69375   0.08408   0.36492   1.000
    O439    O    0.69375   0.58409   0.36492   1.000
    O440    O    0.41578   0.60960   0.36491   1.000
    O441    O    0.91579   0.60959   0.36491   1.000
    O442    O    0.39025   0.30625   0.36496   1.000
    O443    O    0.39025   0.80626   0.36496   1.000
    O444    O    0.89026   0.30625   0.36496   1.000
    O445    O    0.89026   0.80626   0.36496   1.000
    O446    O    0.45402   0.08980   0.40093   1.000
    O447    O    0.38091   0.06423   0.41698   1.000
    O448    O    0.45402   0.58981   0.40093   1.000
    O449    O    0.38091   0.56424   0.41698   1.000
    O450    O    0.95403   0.08980   0.40093   1.000
    O451    O    0.88092   0.06423   0.41698   1.000
    O452    O    0.95403   0.58981   0.40093   1.000
    O453    O    0.88092   0.56424   0.41698   1.000
    O454    O    0.63575   0.54588   0.40093   1.000
    O455    O    0.68329   0.61899   0.41698   1.000
    O456    O    0.63575   0.04588   0.40093   1.000
    O457    O    0.68329   0.11899   0.41698   1.000
    O458    O    0.13574   0.04588   0.40093   1.000
    O459    O    0.18328   0.11899   0.41698   1.000
    O460    O    0.13574   0.54588   0.40093   1.000
    O461    O    0.18328   0.61899   0.41698   1.000
    O462    O    0.91017   0.86433   0.40094   1.000
    O463    O    0.93562   0.81667   0.41702   1.000
    O464    O    0.91017   0.36432   0.40094   1.000
    O465    O    0.93561   0.31667   0.41702   1.000
    O466    O    0.41017   0.86433   0.40094   1.000
    O467    O    0.43561   0.81668   0.41702   1.000
    O468    O    0.41016   0.36432   0.40094   1.000
    O469    O    0.43561   0.31667   0.41702   1.000
    O470    O    0.19991   0.18497   0.42482   1.000
    O471    O    0.69992   0.18497   0.42482   1.000
    O472    O    0.19991   0.68498   0.42482   1.000
    O473    O    0.69992   0.68498   0.42483   1.000
    O474    O    0.81494   0.51490   0.42485   1.000
    O475    O    0.31494   0.01490   0.42485   1.000
    O476    O    0.31493   0.51491   0.42485   1.000
    O477    O    0.81494   0.01490   0.42485   1.000
    O478    O    0.98041   0.79989   0.42488   1.000
    O479    O    0.98040   0.29987   0.42488   1.000
    O480    O    0.48486   0.79989   0.42488   1.000
    O481    O    0.48485   0.29987   0.42488   1.000
    O482    O    0.95497   0.94899   0.45478   1.000
    O483    O    0.95497   0.44899   0.45478   1.000
    O484    O    0.45497   0.94899   0.45478   1.000
    O485    O    0.45497   0.44899   0.45478   1.000
    O486    O    0.99398   0.54508   0.45480   1.000
    O487    O    0.49398   0.54508   0.45480   1.000
    O488    O    0.49398   0.04508   0.45480   1.000
    O489    O    0.55110   0.50601   0.45480   1.000
    O490    O    0.55111   0.00600   0.45480   1.000
    O491    O    0.05110   0.50601   0.45480   1.000
    O492    O    0.05110   0.00600   0.45480   1.000
    O493    O    0.99398   0.04508   0.45480   1.000
    O494    O    0.72898   0.66795   0.45360   1.000
    O495    O    0.66658   0.64706   0.47084   1.000
    O496    O    0.72898   0.16795   0.45334   1.000
    O497    O    0.66659   0.14706   0.47084   1.000
    O498    O    0.22897   0.66795   0.45359   1.000
    O499    O    0.16658   0.64706   0.47084   1.000
    O500    O    0.22897   0.16794   0.45360   1.000
    O501    O    0.16658   0.14706   0.47084   1.000
    O502    O    0.33196   0.56100   0.45361   1.000
    O503    O    0.35287   0.51949   0.47085   1.000
    O504    O    0.83196   0.56099   0.45361   1.000
    O505    O    0.85288   0.51949   0.47086   1.000
    O506    O    0.83196   0.06098   0.45362   1.000
    O507    O    0.85288   0.01948   0.47086   1.000
    O508    O    0.33195   0.06098   0.45361   1.000
    O509    O    0.35287   0.01949   0.47086   1.000
    O510    O    0.43878   0.27095   0.45369   1.000
    O511    O    0.48040   0.33334   0.47085   1.000
    O512    O    0.43879   0.77096   0.45369   1.000
    O513    O    0.48040   0.83335   0.47085   1.000
    O514    O    0.93879   0.27095   0.45369   1.000
    O515    O    0.98040   0.33334   0.47085   1.000
    O516    O    0.93880   0.77096   0.45369   1.000
    O517    O    0.98040   0.83335   0.47085   1.000
    O518    O    0.01949   0.35287   0.52911   1.000
    O519    O    0.01949   0.85288   0.52911   1.000
    O520    O    0.51950   0.35287   0.52911   1.000
    O521    O    0.51950   0.85288   0.52911   1.000
    O522    O    0.64706   0.66659   0.52913   1.000
    O523    O    0.14705   0.16658   0.52913   1.000
    O524    O    0.14705   0.66659   0.52913   1.000
    O525    O    0.64706   0.16658   0.52913   1.000
    O526    O    0.50601   0.55110   0.54517   1.000
    O527    O    0.54508   0.49398   0.54519   1.000
    O528    O    0.44899   0.45497   0.54519   1.000
    O529    O    0.50601   0.05109   0.54517   1.000
    O530    O    0.54508   0.99398   0.54519   1.000
    O531    O    0.44899   0.95498   0.54519   1.000
    O532    O    0.00600   0.55110   0.54517   1.000
    O533    O    0.04507   0.49397   0.54519   1.000
    O534    O    0.94899   0.45497   0.54519   1.000
    O535    O    0.00600   0.05109   0.54517   1.000
    O536    O    0.04507   0.99398   0.54519   1.000
    O537    O    0.94899   0.95497   0.54519   1.000
    O538    O    0.33334   0.48039   0.52912   1.000
    O539    O    0.83334   0.48039   0.52912   1.000
    O540    O    0.83334   0.98039   0.52912   1.000
    O541    O    0.33334   0.98039   0.52912   1.000
    O542    O    0.77095   0.93880   0.54629   1.000
    O543    O    0.77095   0.43879   0.54629   1.000
    O544    O    0.27095   0.93880   0.54629   1.000
    O545    O    0.27095   0.43879   0.54629   1.000
    O546    O    0.56099   0.83195   0.54633   1.000
    O547    O    0.06098   0.83195   0.54636   1.000
    O548    O    0.06097   0.33194   0.54636   1.000
    O549    O    0.56098   0.33194   0.54636   1.000
    O550    O    0.66796   0.72898   0.54638   1.000
    O551    O    0.66796   0.22898   0.54638   1.000
    O552    O    0.16795   0.72898   0.54638   1.000
    O553    O    0.16795   0.22897   0.54638   1.000
    O554    O    0.79989   0.98040   0.57510   1.000
    O555    O    0.81667   0.93561   0.58291   1.000
    O556    O    0.79989   0.48485   0.57510   1.000
    O557    O    0.81667   0.43560   0.58296   1.000
    O558    O    0.29989   0.98040   0.57510   1.000
    O559    O    0.31667   0.93561   0.58291   1.000
    O560    O    0.29989   0.48486   0.57510   1.000
    O561    O    0.31667   0.43560   0.58296   1.000
    O562    O    0.51490   0.81495   0.57512   1.000
    O563    O    0.56424   0.88092   0.58298   1.000
    O564    O    0.51489   0.31494   0.57512   1.000
    O565    O    0.56424   0.38091   0.58298   1.000
    O566    O    0.01489   0.31494   0.57508   1.000
    O567    O    0.06423   0.38090   0.58298   1.000
    O568    O    0.01490   0.81495   0.57512   1.000
    O569    O    0.06424   0.88091   0.58298   1.000
    O570    O    0.68497   0.69990   0.57515   1.000
    O571    O    0.61899   0.68328   0.58299   1.000
    O572    O    0.68498   0.19991   0.57515   1.000
    O573    O    0.61899   0.18328   0.58299   1.000
    O574    O    0.18497   0.69991   0.57515   1.000
    O575    O    0.11898   0.68328   0.58299   1.000
    O576    O    0.18497   0.19990   0.57515   1.000
    O577    O    0.11898   0.18328   0.58299   1.000
    O578    O    0.54588   0.63575   0.59903   1.000
    O579    O    0.04588   0.13574   0.59903   1.000
    O580    O    0.04587   0.63575   0.59903   1.000
    O581    O    0.54588   0.13574   0.59903   1.000
    O582    O    0.08979   0.45402   0.59904   1.000
    O583    O    0.08980   0.95402   0.59904   1.000
    O584    O    0.58980   0.45402   0.59904   1.000
    O585    O    0.58981   0.95403   0.59904   1.000
    O586    O    0.36432   0.41016   0.59904   1.000
    O587    O    0.86433   0.91017   0.59900   1.000
    O588    O    0.36432   0.91017   0.59900   1.000
    O589    O    0.86433   0.41016   0.59904   1.000
    O590    O    0.30625   0.89026   0.63498   1.000
    O591    O    0.80626   0.89026   0.63498   1.000
    O592    O    0.80626   0.39025   0.63502   1.000
    O593    O    0.30625   0.39025   0.63502   1.000
    O594    O    0.58409   0.69374   0.63506   1.000
    O595    O    0.58409   0.19374   0.63506   1.000
    O596    O    0.08408   0.69374   0.63506   1.000
    O597    O    0.08408   0.19374   0.63506   1.000
    O598    O    0.10958   0.41577   0.63507   1.000
    O599    O    0.10958   0.91578   0.63507   1.000
    O600    O    0.60959   0.41578   0.63507   1.000
    O601    O    0.60959   0.91578   0.63507   1.000
    O602    O    0.72427   0.35170   0.70617   1.000
    O603    O    0.22426   0.35170   0.70617   1.000
    O604    O    0.22427   0.85170   0.70617   1.000
    O605    O    0.72427   0.85170   0.70617   1.000
    O606    O    0.12755   0.77574   0.70620   1.000
    O607    O    0.62756   0.77574   0.70620   1.000
    O608    O    0.62756   0.27573   0.70620   1.000
    O609    O    0.14820   0.37237   0.70620   1.000
    O610    O    0.14821   0.87238   0.70620   1.000
    O611    O    0.64821   0.37237   0.70620   1.000
    O612    O    0.64821   0.87238   0.70620   1.000
    O613    O    0.12755   0.27573   0.70620   1.000
    O614    O    0.62756   0.27573   0.79374   1.000
    O615    O    0.64821   0.37238   0.79376   1.000
    O616    O    0.72427   0.35170   0.79379   1.000
    O617    O    0.64821   0.87238   0.79376   1.000
    O618    O    0.62756   0.77574   0.79376   1.000
    O619    O    0.72427   0.85171   0.79379   1.000
    O620    O    0.14820   0.37237   0.79376   1.000
    O621    O    0.12755   0.27573   0.79377   1.000
    O622    O    0.22426   0.35170   0.79379   1.000
    O623    O    0.12756   0.77574   0.79376   1.000
    O624    O    0.14821   0.87238   0.79376   1.000
    O625    O    0.22427   0.85171   0.79379   1.000
    O626    O    0.58409   0.19374   0.86488   1.000
    O627    O    0.08408   0.69375   0.86490   1.000
    O628    O    0.10958   0.41578   0.86489   1.000
    O629    O    0.10958   0.91579   0.86487   1.000
    O630    O    0.60959   0.41578   0.86487   1.000
    O631    O    0.60959   0.91579   0.86487   1.000
    O632    O    0.58409   0.69374   0.86490   1.000
    O633    O    0.08408   0.19374   0.86491   1.000
    O634    O    0.30625   0.39025   0.86495   1.000
    O635    O    0.30625   0.89026   0.86495   1.000
    O636    O    0.80626   0.39025   0.86495   1.000
    O637    O    0.80626   0.89026   0.86495   1.000
    O638    O    0.58980   0.95403   0.90090   1.000
    O639    O    0.56424   0.88092   0.91695   1.000
    O640    O    0.58980   0.45402   0.90090   1.000
    O641    O    0.56424   0.38091   0.91695   1.000
    O642    O    0.08980   0.95402   0.90090   1.000
    O643    O    0.06424   0.88091   0.91695   1.000
    O644    O    0.08980   0.45402   0.90092   1.000
    O645    O    0.06424   0.38091   0.91697   1.000
    O646    O    0.54588   0.63575   0.90094   1.000
    O647    O    0.61899   0.68328   0.91693   1.000
    O648    O    0.54588   0.13574   0.90094   1.000
    O649    O    0.61899   0.18328   0.91697   1.000
    O650    O    0.04587   0.63575   0.90094   1.000
    O651    O    0.11898   0.68329   0.91697   1.000
    O652    O    0.04587   0.13574   0.90094   1.000
    O653    O    0.11898   0.18328   0.91698   1.000
    O654    O    0.86433   0.91017   0.90092   1.000
    O655    O    0.81667   0.93561   0.91699   1.000
    O656    O    0.36432   0.41016   0.90092   1.000
    O657    O    0.31666   0.43560   0.91701   1.000
    O658    O    0.36432   0.91017   0.90092   1.000
    O659    O    0.31666   0.93561   0.91702   1.000
    O660    O    0.86433   0.41016   0.90092   1.000
    O661    O    0.81667   0.43560   0.91702   1.000
    O662    O    0.29988   0.48486   0.92087   1.000
    O663    O    0.68497   0.69989   0.92476   1.000
    O664    O    0.18496   0.69991   0.92481   1.000
    O665    O    0.68497   0.19991   0.92481   1.000
    O666    O    0.18496   0.19992   0.92482   1.000
    O667    O    0.51490   0.81495   0.92484   1.000
    O668    O    0.01489   0.31494   0.92484   1.000
    O669    O    0.01490   0.81494   0.92484   1.000
    O670    O    0.51490   0.31494   0.92484   1.000
    O671    O    0.29988   0.98040   0.92487   1.000
    O672    O    0.79989   0.98040   0.92485   1.000
    O673    O    0.79989   0.48485   0.92487   1.000
    O674    O    0.94899   0.95497   0.95478   1.000
    O675    O    0.94899   0.45497   0.95477   1.000
    O676    O    0.44899   0.95498   0.95478   1.000
    O677    O    0.44898   0.45497   0.95477   1.000
    O678    O    0.04507   0.99398   0.95479   1.000
    O679    O    0.04507   0.49398   0.95479   1.000
    O680    O    0.54508   0.99398   0.95479   1.000
    O681    O    0.54507   0.49398   0.95479   1.000
    O682    O    0.00600   0.55110   0.95479   1.000
    O683    O    0.50600   0.55110   0.95479   1.000
    O684    O    0.50601   0.05110   0.95480   1.000
    O685    O    0.00600   0.05109   0.95480   1.000
    O686    O    0.66796   0.72898   0.95353   1.000
    O687    O    0.64706   0.66658   0.97079   1.000
    O688    O    0.16794   0.72898   0.95358   1.000
    O689    O    0.14705   0.66659   0.97083   1.000
    O690    O    0.66795   0.22898   0.95358   1.000
    O691    O    0.64706   0.16658   0.97084   1.000
    O692    O    0.16793   0.22898   0.95360   1.000
    O693    O    0.14705   0.16658   0.97085   1.000
    O694    O    0.56098   0.33195   0.95360   1.000
    O695    O    0.06098   0.83195   0.95360   1.000
    O696    O    0.56099   0.83195   0.95360   1.000
    O697    O    0.77095   0.93880   0.95365   1.000
    O698    O    0.83335   0.98039   0.97084   1.000
    O699    O    0.06098   0.33194   0.95360   1.000
    O700    O    0.27094   0.43879   0.95367   1.000
    O701    O    0.33333   0.48039   0.97085   1.000
    O702    O    0.27094   0.93879   0.95368   1.000
    O703    O    0.33334   0.98039   0.97086   1.000
    O704    O    0.77095   0.43879   0.95368   1.000
    O705    O    0.83335   0.48039   0.97086   1.000
    O706    O    0.06797   0.06797   1.00000   1.000
    O707    O    0.06796   0.56797   0.99998   1.000
    O708    O    0.56798   0.06797   1.00000   1.000
    O709    O    0.56796   0.56797   0.99998   1.000
    O710    O    0.50001   0.93204   1.00000   1.000
    O711    O    0.43204   0.00000   0.99999   1.000
    O712    O    0.43202   0.50000   0.99997   1.000
    O713    O    0.93204   1.00000   0.99999   1.000
    O714    O    0.93203   0.50000   0.99998   1.000
    O715    O    0.06796   0.06797   0.49998   1.000
    O716    O    0.06796   0.56797   0.49998   1.000
    O717    O    0.56797   0.06797   0.49998   1.000
    O718    O    0.56797   0.56797   0.49998   1.000
    O719    O    0.00000   0.43203   0.49998   1.000
    O720    O    0.00000   0.93203   0.49998   1.000
    O721    O    0.50001   0.43203   0.49998   1.000
    O722    O    0.50001   0.93204   0.49998   1.000
    O723    O    0.43203   1.00000   0.50000   1.000
    O724    O    0.43203   0.50000   0.50000   1.000
    O725    O    0.93203   0.99999   0.50000   1.000
    O726    O    0.93203   0.50000   0.50000   1.000
loop_
    _geom_bond_atom_site_label_1
    _geom_bond_atom_site_label_2
    _geom_bond_distance
    _geom_bond_site_symmetry_2
    _ccdc_geom_bond_type
    C311   O328      0.71175      .   S
    C125   O328      0.71175      .   S
    C311   O329      0.71172  1_554   S
    C167   O329      0.71172      .   S
    C29    O330      0.55182      .   S
    C125   O330      0.55182      .   S
    C30    O331      0.55183      .   S
    C126   O331      0.55183      .   S
    C28    O332      0.55165      .   S
    C124   O332      0.55165      .   S
    C31    O333      0.55163      .   S
    C127   O333      0.55163      .   S
    C37    O334      0.55186      .   S
    C133   O334      0.55186      .   S
    C38    O335      0.55165      .   S
    C134   O335      0.55165      .   S
    C23    O336      0.55161      .   S
    C119   O336      0.55161      .   S
    C36    O337      0.55162      .   S
    C132   O337      0.55162      .   S
    C39    O338      0.55163      .   S
    C135   O338      0.55163      .   S
    C22    O339      0.55161      .   S
    C118   O339      0.55161      .   S
    C21    O340      0.55161      .   S
    C117   O340      0.55161      .   S
    C20    O341      0.55163      .   S
    C116   O341      0.55163      .   S
    C124   O342      0.55122      .   S
    C24    O342      0.55122      .   S
    C124   O343      0.76278      .   S
    C120   O343      0.76278      .   S
    C125   O344      0.55123      .   S
    C25    O344      0.55123      .   S
    C125   O345      0.76279      .   S
    C121   O345      0.76279      .   S
    C127   O346      0.48547      .   S
    C27    O346      0.48547  1_455   S
    C127   O347      0.76280      .   S
    C123   O347      0.76280      .   S
    C126   O348      0.48590      .   S
    C26    O348      0.48590  1_455   S
    C126   O349      0.76278      .   S
    C122   O349      0.76278      .   S
    C132   O350      0.55125      .   S
    C32    O350      0.55125  1_565   S
    C132   O351      0.76281      .   S
    C128   O351      0.76281      .   S
    C132   O352      0.71169      .   S
    C312   O352      0.71169  1_566   S
    C133   O353      0.55082      .   S
    C33    O353      0.55082      .   S
    C133   O354      0.76280      .   S
    C129   O354      0.76280      .   S
    C133   O355      0.71183      .   S
    C313   O355      0.71183  1_556   S
    C134   O356      0.55081      .   S
    C34    O356      0.55081  1_565   S
    C134   O357      0.76281      .   S
    C130   O357      0.76281      .   S
    C134   O358      0.71171      .   S
    C314   O358      0.71171  1_566   S
    C135   O359      0.55125      .   S
    C35    O359      0.55125      .   S
    C135   O360      0.76281      .   S
    C131   O360      0.76281      .   S
    C135   O361      0.71168      .   S
    C315   O361      0.71168  1_556   S
    C119   O362      0.55122      .   S
    C19    O362      0.55122      .   S
    C119   O363      0.76279      .   S
    C115   O363      0.76279      .   S
    C119   O364      0.71185      .   S
    C307   O364      0.71185  1_556   S
    C117   O365      0.55125      .   S
    C17    O365      0.55125      .   S
    C117   O366      0.76273      .   S
    C113   O366      0.76273      .   S
    C117   O367      0.71184      .   S
    C305   O367      0.71184  1_556   S
    C118   O368      0.55125      .   S
    C18    O368      0.55125      .   S
    C118   O369      0.76278      .   S
    C114   O369      0.76278      .   S
    C118   O370      0.71167      .   S
    C306   O370      0.71167      .   S
    C116   O371      0.55119      .   S
    C16    O371      0.55119      .   S
    C116   O372      0.76280      .   S
    C112   O372      0.76280      .   S
    C116   O373      0.71169      .   S
    C304   O373      0.71169      .   S
    C208   O374      0.62973      .   S
    C112   O374      0.62973      .   S
    C208   O375      1.18878      .   S
    C8     O375      1.18878  1_556   S
    C209   O376      0.62956      .   S
    C113   O376      0.62956      .   S
    C209   O377      1.18924      .   S
    C9     O377      1.18924  1_556   S
    C210   O378      0.62958      .   S
    C114   O378      0.62958      .   S
    C210   O379      1.18913      .   S
    C10    O379      1.18913  1_556   S
    C211   O380      0.62959      .   S
    C115   O380      0.62959      .   S
    C211   O381      1.18924      .   S
    C11    O381      1.18924  1_556   S
    C224   O382      0.62959      .   S
    C128   O382      0.62959      .   S
    C224   O383      1.18920      .   S
    C10    O383      1.18920  1_556   S
    C225   O384      0.62960      .   S
    C129   O384      0.62960      .   S
    C225   O385      1.18927      .   S
    C11    O385      1.18927  1_556   S
    C226   O386      0.62960      .   S
    C130   O386      0.62960      .   S
    C226   O387      1.18914      .   S
    C8     O387      1.18914  1_456   S
    C227   O388      0.62959      .   S
    C131   O388      0.62959      .   S
    C227   O389      1.18921      .   S
    C9     O389      1.18921  1_456   S
    C216   O390      0.62960      .   S
    C120   O390      0.62960      .   S
    C216   O391      1.18901      .   S
    C11    O391      1.18901  1_556   S
    C217   O392      0.62959      .   S
    C121   O392      0.62959      .   S
    C217   O393      1.18894      .   S
    C10    O393      1.18894  1_546   S
    C218   O394      0.62960      .   S
    C122   O394      0.62960      .   S
    C218   O395      1.18896      .   S
    C9     O395      1.18896  1_456   S
    C219   O396      0.62959      .   S
    C123   O396      0.62959      .   S
    C219   O397      1.18891      .   S
    C8     O397      1.18891  1_446   S
    C120   O398      0.63574      .   S
    C220   O398      0.63574      .   S
    C121   O399      0.63622      .   S
    C221   O399      0.63622      .   S
    C122   O400      0.63622      .   S
    C222   O400      0.63622      .   S
    C123   O401      0.63622      .   S
    C223   O401      0.63622      .   S
    C113   O402      0.63623      .   S
    C213   O402      0.63623      .   S
    C115   O403      0.63616      .   S
    C215   O403      0.63616      .   S
    C114   O404      0.63617      .   S
    C214   O404      0.63617      .   S
    C112   O405      0.63596      .   S
    C212   O405      0.63596      .   S
    C131   O406      0.63616      .   S
    C231   O406      0.63616      .   S
    C130   O407      0.63616      .   S
    C230   O407      0.63616      .   S
    C129   O408      0.63616      .   S
    C229   O408      0.63616      .   S
    C128   O409      0.63616      .   S
    C228   O409      0.63616      .   S
    C220   O410      1.20779      .   S
    C0     O410      1.20779      .   S
    C221   O411      1.20738      .   S
    C1     O411      1.20738      .   S
    C222   O412      1.20739      .   S
    C2     O412      1.20739      .   S
    C223   O413      1.20738      .   S
    C3     O413      1.20738      .   S
    C212   O414      1.20749      .   S
    C0     O414      1.20749      .   S
    C231   O415      1.20712      .   S
    C3     O415      1.20712      .   S
    C214   O416      1.20737      .   S
    C2     O416      1.20737      .   S
    C230   O417      1.20712      .   S
    C2     O417      1.20712      .   S
    C229   O418      1.20710      .   S
    C1     O418      1.20710      .   S
    C228   O419      1.20711      .   S
    C0     O419      1.20711      .   S
    C213   O420      1.20737      .   S
    C1     O420      1.20737      .   S
    C215   O421      1.20735      .   S
    C3     O421      1.20735      .   S
    C1     O422      1.20737      .   S
    C237   O422      1.20737      .   S
    C1     O423      1.20713      .   S
    C253   O423      1.20713      .   S
    C1     O424      1.20742      .   S
    C245   O424      1.20742      .   S
    C0     O425      1.20714      .   S
    C252   O425      1.20714      .   S
    C0     O426      1.20737      .   S
    C236   O426      1.20737      .   S
    C0     O427      1.20742      .   S
    C244   O427      1.20742      .   S
    C3     O428      1.20736      .   S
    C239   O428      1.20736      .   S
    C3     O429      1.20714      .   S
    C255   O429      1.20714      .   S
    C3     O430      1.20742      .   S
    C247   O430      1.20742      .   S
    C2     O431      1.20713      .   S
    C254   O431      1.20713      .   S
    C2     O432      1.20736      .   S
    C238   O432      1.20736      .   S
    C2     O433      1.20742      .   S
    C246   O433      1.20742      .   S
    C254   O434      0.63616      .   S
    C154   O434      0.63616      .   S
    C252   O435      0.63616      .   S
    C152   O435      0.63616      .   S
    C236   O436      0.63616      .   S
    C136   O436      0.63616      .   S
    C237   O437      0.63616      .   S
    C137   O437      0.63616      .   S
    C238   O438      0.63617      .   S
    C138   O438      0.63617      .   S
    C239   O439      0.63616      .   S
    C139   O439      0.63616      .   S
    C253   O440      0.63616      .   S
    C153   O440      0.63616      .   S
    C255   O441      0.63616      .   S
    C155   O441      0.63616      .   S
    C244   O442      0.63616      .   S
    C144   O442      0.63616      .   S
    C245   O443      0.63617      .   S
    C145   O443      0.63617      .   S
    C246   O444      0.63616      .   S
    C146   O444      0.63616      .   S
    C247   O445      0.63616      .   S
    C147   O445      0.63616      .   S
    C152   O446      0.62960      .   S
    C248   O446      0.62960      .   S
    C152   O447      0.76280      .   S
    C156   O447      0.76280      .   S
    C153   O448      0.62960      .   S
    C249   O448      0.62960      .   S
    C153   O449      0.76274      .   S
    C157   O449      0.76274      .   S
    C154   O450      0.62960      .   S
    C250   O450      0.62960      .   S
    C154   O451      0.76280      .   S
    C158   O451      0.76280      .   S
    C155   O452      0.62960      .   S
    C251   O452      0.62960      .   S
    C155   O453      0.76280      .   S
    C159   O453      0.76280      .   S
    C139   O454      0.62954      .   S
    C235   O454      0.62954      .   S
    C139   O455      0.76277      .   S
    C143   O455      0.76277      .   S
    C138   O456      0.62953      .   S
    C234   O456      0.62953      .   S
    C138   O457      0.76278      .   S
    C142   O457      0.76278      .   S
    C136   O458      0.62953      .   S
    C232   O458      0.62953      .   S
    C136   O459      0.76278      .   S
    C140   O459      0.76278      .   S
    C137   O460      0.62954      .   S
    C233   O460      0.62954      .   S
    C137   O461      0.76278      .   S
    C141   O461      0.76278      .   S
    C147   O462      0.62960      .   S
    C243   O462      0.62960      .   S
    C147   O463      0.76279      .   S
    C151   O463      0.76279      .   S
    C146   O464      0.62959      .   S
    C242   O464      0.62959      .   S
    C146   O465      0.76278      .   S
    C150   O465      0.76278      .   S
    C145   O466      0.62960      .   S
    C241   O466      0.62960      .   S
    C145   O467      0.76279      .   S
    C149   O467      0.76279      .   S
    C144   O468      0.62960      .   S
    C240   O468      0.62960      .   S
    C144   O469      0.76278      .   S
    C148   O469      0.76278      .   S
    C40    O470      0.55125      .   S
    C140   O470      0.55125      .   S
    C42    O471      0.55124      .   S
    C142   O471      0.55124      .   S
    C41    O472      0.55125      .   S
    C141   O472      0.55125      .   S
    C43    O473      0.55120      .   S
    C143   O473      0.55120      .   S
    C59    O474      0.55120      .   S
    C159   O474      0.55120      .   S
    C56    O475      0.55121  1_565   S
    C156   O475      0.55121      .   S
    C57    O476      0.55116      .   S
    C157   O476      0.55116      .   S
    C58    O477      0.55121  1_565   S
    C158   O477      0.55121      .   S
    C51    O478      0.48593  1_455   S
    C151   O478      0.48593      .   S
    C50    O479      0.48599  1_455   S
    C150   O479      0.48599      .   S
    C49    O480      0.55122      .   S
    C149   O480      0.55122      .   S
    C48    O481      0.55122      .   S
    C148   O481      0.55122      .   S
    C243   O482      1.18892      .   S
    C12    O482      1.18892  1_445   S
    C242   O483      1.18898      .   S
    C13    O483      1.18898  1_455   S
    C241   O484      1.18895      .   S
    C14    O484      1.18895  1_545   S
    C240   O485      1.18901      .   S
    C15    O485      1.18901      .   S
    C251   O486      1.18915      .   S
    C13    O486      1.18915  1_455   S
    C249   O487      1.18920      .   S
    C15    O487      1.18920      .   S
    C248   O488      1.18921      .   S
    C14    O488      1.18921      .   S
    C235   O489      1.18924      .   S
    C15    O489      1.18924      .   S
    C234   O490      1.18924      .   S
    C14    O490      1.18924      .   S
    C233   O491      1.18924      .   S
    C13    O491      1.18924      .   S
    C232   O492      1.18924      .   S
    C12    O492      1.18924      .   S
    C250   O493      1.18915      .   S
    C12    O493      1.18915  1_455   S
    C143   O494      0.55163      .   S
    C47    O494      0.55163      .   S
    C143   O495      0.71169      .   S
    C319   O495      0.71169      .   S
    C142   O496      0.54994      .   S
    C46    O496      0.54994      .   S
    C142   O497      0.71167      .   S
    C318   O497      0.71167      .   S
    C141   O498      0.55161      .   S
    C45    O498      0.55161      .   S
    C141   O499      0.71167      .   S
    C317   O499      0.71167      .   S
    C140   O500      0.55164      .   S
    C44    O500      0.55164      .   S
    C140   O501      0.71167      .   S
    C316   O501      0.71167      .   S
    C157   O502      0.55168      .   S
    C61    O502      0.55168      .   S
    C157   O503      0.71178      .   S
    C325   O503      0.71178      .   S
    C159   O504      0.55158      .   S
    C63    O504      0.55158      .   S
    C159   O505      0.71170      .   S
    C327   O505      0.71170      .   S
    C158   O506      0.55166      .   S
    C62    O506      0.55166      .   S
    C158   O507      0.71170      .   S
    C326   O507      0.71170  1_565   S
    C156   O508      0.55162      .   S
    C60    O508      0.55162      .   S
    C156   O509      0.71169      .   S
    C324   O509      0.71169  1_565   S
    C148   O510      0.55164      .   S
    C52    O510      0.55164      .   S
    C148   O511      0.71170      .   S
    C322   O511      0.71170      .   S
    C149   O512      0.55165      .   S
    C53    O512      0.55165      .   S
    C149   O513      0.71169      .   S
    C323   O513      0.71169      .   S
    C150   O514      0.55164      .   S
    C54    O514      0.55164      .   S
    C150   O515      0.71167      .   S
    C320   O515      0.71167      .   S
    C151   O516      0.55166      .   S
    C55    O516      0.55166      .   S
    C151   O517      0.71166      .   S
    C321   O517      0.71166      .   S
    C320   O518      0.71171  1_655   S
    C188   O518      0.71171      .   S
    C321   O519      0.71173  1_655   S
    C189   O519      0.71173      .   S
    C322   O520      0.71171      .   S
    C190   O520      0.71171      .   S
    C323   O521      0.71172      .   S
    C191   O521      0.71172      .   S
    C319   O522      0.71170      .   S
    C199   O522      0.71170      .   S
    C316   O523      0.71172      .   S
    C196   O523      0.71172      .   S
    C317   O524      0.71172      .   S
    C197   O524      0.71172      .   S
    C318   O525      0.71172      .   S
    C198   O525      0.71172      .   S
    C15    O526      1.18901      .   S
    C291   O526      1.18901      .   S
    C15    O527      1.18916      .   S
    C282   O527      1.18916      .   S
    C15    O528      1.18896      .   S
    C296   O528      1.18896      .   S
    C14    O529      1.18901      .   S
    C290   O529      1.18901      .   S
    C14    O530      1.18910  1_545   S
    C283   O530      1.18910      .   S
    C14    O531      1.18892  1_545   S
    C297   O531      1.18892      .   S
    C13    O532      1.18901      .   S
    C289   O532      1.18901      .   S
    C13    O533      1.18915      .   S
    C280   O533      1.18915      .   S
    C13    O534      1.18890  1_455   S
    C298   O534      1.18890      .   S
    C12    O535      1.18901      .   S
    C288   O535      1.18901      .   S
    C12    O536      1.18910  1_545   S
    C281   O536      1.18910      .   S
    C12    O537      1.18885  1_445   S
    C299   O537      1.18885      .   S
    C325   O538      0.71169      .   S
    C204   O538      0.71169      .   S
    C327   O539      0.71171      .   S
    C206   O539      0.71171      .   S
    C326   O540      0.71169      .   S
    C207   O540      0.71169      .   S
    C324   O541      0.71170      .   S
    C205   O541      0.71170      .   S
    C111   O542      0.55163      .   S
    C207   O542      0.55163      .   S
    C110   O543      0.55163      .   S
    C206   O543      0.55163      .   S
    C109   O544      0.55163      .   S
    C205   O544      0.55163      .   S
    C108   O545      0.55164      .   S
    C204   O545      0.55164      .   S
    C95    O546      0.55185      .   S
    C191   O546      0.55185      .   S
    C93    O547      0.55164      .   S
    C189   O547      0.55164      .   S
    C92    O548      0.55161      .   S
    C188   O548      0.55161      .   S
    C94    O549      0.55161      .   S
    C190   O549      0.55161      .   S
    C103   O550      0.55162      .   S
    C199   O550      0.55162      .   S
    C102   O551      0.55161      .   S
    C198   O551      0.55161      .   S
    C101   O552      0.55162      .   S
    C197   O552      0.55162      .   S
    C100   O553      0.55161      .   S
    C196   O553      0.55161      .   S
    C207   O554      0.48599      .   S
    C107   O554      0.48599  1_545   S
    C207   O555      0.76238      .   S
    C203   O555      0.76238      .   S
    C206   O556      0.55124      .   S
    C106   O556      0.55124      .   S
    C206   O557      0.76280      .   S
    C202   O557      0.76280      .   S
    C205   O558      0.48599      .   S
    C105   O558      0.48599  1_545   S
    C205   O559      0.76238      .   S
    C201   O559      0.76238      .   S
    C204   O560      0.55123      .   S
    C104   O560      0.55123      .   S
    C204   O561      0.76280      .   S
    C200   O561      0.76280      .   S
    C191   O562      0.55123      .   S
    C91    O562      0.55123      .   S
    C191   O563      0.76281      .   S
    C187   O563      0.76281      .   S
    C190   O564      0.55127      .   S
    C90    O564      0.55127      .   S
    C190   O565      0.76283      .   S
    C186   O565      0.76283      .   S
    C188   O566      0.55084      .   S
    C88    O566      0.55084  1_655   S
    C188   O567      0.76283      .   S
    C184   O567      0.76283      .   S
    C189   O568      0.55123      .   S
    C89    O568      0.55123  1_655   S
    C189   O569      0.76281      .   S
    C185   O569      0.76281      .   S
    C199   O570      0.55122      .   S
    C99    O570      0.55122      .   S
    C199   O571      0.76278      .   S
    C195   O571      0.76278      .   S
    C198   O572      0.55124      .   S
    C98    O572      0.55124      .   S
    C198   O573      0.76277      .   S
    C194   O573      0.76277      .   S
    C197   O574      0.55123      .   S
    C97    O574      0.55123      .   S
    C197   O575      0.76278      .   S
    C193   O575      0.76278      .   S
    C196   O576      0.55123      .   S
    C96    O576      0.55123      .   S
    C196   O577      0.76277      .   S
    C192   O577      0.76277      .   S
    C291   O578      0.62960      .   S
    C195   O578      0.62960      .   S
    C288   O579      0.62960      .   S
    C192   O579      0.62960      .   S
    C289   O580      0.62960      .   S
    C193   O580      0.62960      .   S
    C290   O581      0.62960      .   S
    C194   O581      0.62960      .   S
    C280   O582      0.62960      .   S
    C184   O582      0.62960      .   S
    C281   O583      0.62960      .   S
    C185   O583      0.62960      .   S
    C282   O584      0.62959      .   S
    C186   O584      0.62959      .   S
    C283   O585      0.62960      .   S
    C187   O585      0.62960      .   S
    C296   O586      0.62960      .   S
    C200   O586      0.62960      .   S
    C299   O587      0.62942      .   S
    C203   O587      0.62942      .   S
    C297   O588      0.62942      .   S
    C201   O588      0.62942      .   S
    C298   O589      0.62959      .   S
    C202   O589      0.62959      .   S
    C201   O590      0.63671      .   S
    C301   O590      0.63671      .   S
    C203   O591      0.63670      .   S
    C303   O591      0.63670      .   S
    C202   O592      0.63615      .   S
    C302   O592      0.63615      .   S
    C200   O593      0.63616      .   S
    C300   O593      0.63616      .   S
    C195   O594      0.63616      .   S
    C295   O594      0.63616      .   S
    C194   O595      0.63616      .   S
    C294   O595      0.63616      .   S
    C193   O596      0.63616      .   S
    C293   O596      0.63616      .   S
    C192   O597      0.63616      .   S
    C292   O597      0.63616      .   S
    C184   O598      0.63616      .   S
    C284   O598      0.63616      .   S
    C185   O599      0.63616      .   S
    C285   O599      0.63616      .   S
    C186   O600      0.63616      .   S
    C286   O600      0.63616      .   S
    C187   O601      0.63616      .   S
    C287   O601      0.63616      .   S
    C302   O602      1.20739      .   S
    C6     O602      1.20739      .   S
    C300   O603      1.20740      .   S
    C4     O603      1.20740      .   S
    C301   O604      1.20739      .   S
    C5     O604      1.20739      .   S
    C303   O605      1.20739      .   S
    C7     O605      1.20739      .   S
    C293   O606      1.20735      .   S
    C5     O606      1.20735      .   S
    C295   O607      1.20736      .   S
    C7     O607      1.20736      .   S
    C294   O608      1.20735      .   S
    C6     O608      1.20735      .   S
    C284   O609      1.20709      .   S
    C4     O609      1.20709      .   S
    C285   O610      1.20710      .   S
    C5     O610      1.20710      .   S
    C286   O611      1.20709      .   S
    C6     O611      1.20709      .   S
    C287   O612      1.20709      .   S
    C7     O612      1.20709      .   S
    C292   O613      1.20735      .   S
    C4     O613      1.20735      .   S
    C6     O614      1.20710      .   S
    C270   O614      1.20710      .   S
    C6     O615      1.20712      .   S
    C262   O615      1.20712      .   S
    C6     O616      1.20741      .   S
    C278   O616      1.20741      .   S
    C7     O617      1.20710      .   S
    C263   O617      1.20710      .   S
    C7     O618      1.20734      .   S
    C271   O618      1.20734      .   S
    C7     O619      1.20740      .   S
    C279   O619      1.20740      .   S
    C4     O620      1.20712      .   S
    C260   O620      1.20712      .   S
    C4     O621      1.20738      .   S
    C268   O621      1.20738      .   S
    C4     O622      1.20741      .   S
    C276   O622      1.20741      .   S
    C5     O623      1.20733      .   S
    C269   O623      1.20733      .   S
    C5     O624      1.20711      .   S
    C261   O624      1.20711      .   S
    C5     O625      1.20740      .   S
    C277   O625      1.20740      .   S
    C270   O626      0.63644      .   S
    C170   O626      0.63644      .   S
    C269   O627      0.63616      .   S
    C169   O627      0.63616      .   S
    C260   O628      0.63615      .   S
    C160   O628      0.63615      .   S
    C261   O629      0.63581      .   S
    C161   O629      0.63581      .   S
    C262   O630      0.63581      .   S
    C162   O630      0.63581      .   S
    C263   O631      0.63581      .   S
    C163   O631      0.63581      .   S
    C271   O632      0.63617      .   S
    C171   O632      0.63617      .   S
    C268   O633      0.63610      .   S
    C168   O633      0.63610      .   S
    C276   O634      0.63623      .   S
    C176   O634      0.63623      .   S
    C277   O635      0.63622      .   S
    C177   O635      0.63622      .   S
    C278   O636      0.63623      .   S
    C178   O636      0.63623      .   S
    C279   O637      0.63623      .   S
    C179   O637      0.63623      .   S
    C163   O638      0.62973      .   S
    C259   O638      0.62973      .   S
    C163   O639      0.76307      .   S
    C167   O639      0.76307      .   S
    C162   O640      0.62973      .   S
    C258   O640      0.62973      .   S
    C162   O641      0.76308      .   S
    C166   O641      0.76308      .   S
    C161   O642      0.62973      .   S
    C257   O642      0.62973      .   S
    C161   O643      0.76307      .   S
    C165   O643      0.76307      .   S
    C160   O644      0.62963      .   S
    C256   O644      0.62963      .   S
    C160   O645      0.76281      .   S
    C164   O645      0.76281      .   S
    C171   O646      0.62959      .   S
    C267   O646      0.62959      .   S
    C171   O647      0.76240      .   S
    C175   O647      0.76240      .   S
    C170   O648      0.62960      .   S
    C266   O648      0.62960      .   S
    C170   O649      0.76278      .   S
    C174   O649      0.76278      .   S
    C169   O650      0.62959      .   S
    C265   O650      0.62959      .   S
    C169   O651      0.76278      .   S
    C173   O651      0.76278      .   S
    C168   O652      0.62961      .   S
    C264   O652      0.62961      .   S
    C168   O653      0.76280      .   S
    C172   O653      0.76280      .   S
    C179   O654      0.62957      .   S
    C275   O654      0.62957      .   S
    C179   O655      0.76259      .   S
    C183   O655      0.76259      .   S
    C176   O656      0.62958      .   S
    C272   O656      0.62958      .   S
    C176   O657      0.76274      .   S
    C180   O657      0.76274      .   S
    C177   O658      0.62957      .   S
    C273   O658      0.62957      .   S
    C177   O659      0.76279      .   S
    C181   O659      0.76279      .   S
    C178   O660      0.62958      .   S
    C274   O660      0.62958      .   S
    C178   O661      0.76278      .   S
    C182   O661      0.76278      .   S
    C80    O662      0.59309      .   S
    C180   O662      0.59309      .   S
    C75    O663      0.55087      .   S
    C175   O663      0.55087      .   S
    C73    O664      0.55122      .   S
    C173   O664      0.55122      .   S
    C74    O665      0.55122      .   S
    C174   O665      0.55122      .   S
    C72    O666      0.55124      .   S
    C172   O666      0.55124      .   S
    C67    O667      0.55123      .   S
    C167   O667      0.55123      .   S
    C64    O668      0.55123  1_655   S
    C164   O668      0.55123      .   S
    C65    O669      0.55123  1_655   S
    C165   O669      0.55123      .   S
    C66    O670      0.55122      .   S
    C166   O670      0.55122      .   S
    C81    O671      0.48599  1_545   S
    C181   O671      0.48599      .   S
    C83    O672      0.48574  1_545   S
    C183   O672      0.48574      .   S
    C82    O673      0.55125      .   S
    C182   O673      0.55125      .   S
    C275   O674      1.18906      .   S
    C8     O674      1.18906  1_445   S
    C274   O675      1.18897      .   S
    C9     O675      1.18897  1_455   S
    C273   O676      1.18912      .   S
    C10    O676      1.18912  1_545   S
    C272   O677      1.18903      .   S
    C11    O677      1.18903      .   S
    C257   O678      1.18910      .   S
    C8     O678      1.18910  1_545   S
    C256   O679      1.18913      .   S
    C9     O679      1.18913      .   S
    C259   O680      1.18911      .   S
    C10    O680      1.18911  1_545   S
    C258   O681      1.18913      .   S
    C11    O681      1.18913      .   S
    C265   O682      1.18907      .   S
    C9     O682      1.18907      .   S
    C267   O683      1.18908      .   S
    C11    O683      1.18908      .   S
    C266   O684      1.18910      .   S
    C10    O684      1.18910      .   S
    C264   O685      1.18910      .   S
    C8     O685      1.18910      .   S
    C175   O686      0.55188      .   S
    C79    O686      0.55188      .   S
    C175   O687      0.71218      .   S
    C307   O687      0.71218      .   S
    C173   O688      0.55164      .   S
    C77    O688      0.55164      .   S
    C173   O689      0.71172      .   S
    C305   O689      0.71172      .   S
    C174   O690      0.55164      .   S
    C78    O690      0.55164      .   S
    C174   O691      0.71182      .   S
    C306   O691      0.71182  1_554   S
    C172   O692      0.55162      .   S
    C76    O692      0.55162      .   S
    C172   O693      0.71179      .   S
    C304   O693      0.71179  1_554   S
    C166   O694      0.55164      .   S
    C70    O694      0.55164      .   S
    C165   O695      0.55163      .   S
    C69    O695      0.55163      .   S
    C167   O696      0.55165      .   S
    C71    O696      0.55165      .   S
    C183   O697      0.55174      .   S
    C87    O697      0.55174      .   S
    C183   O698      0.71207      .   S
    C314   O698      0.71207      .   S
    C164   O699      0.55164      .   S
    C68    O699      0.55164      .   S
    C180   O700      0.55164      .   S
    C84    O700      0.55164      .   S
    C180   O701      0.71170      .   S
    C313   O701      0.71170      .   S
    C181   O702      0.55163      .   S
    C85    O702      0.55163      .   S
    C181   O703      0.71182      .   S
    C312   O703      0.71182      .   S
    C182   O704      0.55163      .   S
    C86    O704      0.55163      .   S
    C182   O705      0.71184      .   S
    C315   O705      0.71184      .   S
    C304   O706      1.22928  1_554   S
    C8     O706      1.22928      .   S
    C305   O707      1.22928      .   S
    C9     O707      1.22928      .   S
    C306   O708      1.22928  1_554   S
    C10    O708      1.22928      .   S
    C307   O709      1.22928      .   S
    C11    O709      1.22928      .   S
    C311   O710      1.22951  1_554   S
    C10    O710      1.22951  1_545   S
    C312   O711      1.22962  1_565   S
    C10    O711      1.22963      .   S
    C313   O712      1.22962      .   S
    C11    O712      1.22962      .   S
    C314   O713      1.22948      .   S
    C8     O713      1.22948  1_445   S
    C315   O714      1.22943      .   S
    C9     O714      1.22943  1_455   S
    C316   O715      1.22927      .   S
    C12    O715      1.22927      .   S
    C317   O716      1.22926      .   S
    C13    O716      1.22926      .   S
    C318   O717      1.22927      .   S
    C14    O717      1.22927      .   S
    C319   O718      1.22927      .   S
    C15    O718      1.22927      .   S
    C320   O719      1.22964  1_655   S
    C13    O719      1.22962      .   S
    C321   O720      1.22950  1_655   S
    C12    O720      1.22950  1_545   S
    C322   O721      1.22963      .   S
    C15    O721      1.22963      .   S
    C323   O722      1.22949      .   S
    C14    O722      1.22949  1_545   S
    C324   O723      1.22961      .   S
    C14    O723      1.22961  1_545   S
    C325   O724      1.22961      .   S
    C15    O724      1.22961      .   S
    C326   O725      1.22948      .   S
    C12    O725      1.22948  1_445   S
    C327   O726      1.22948      .   S
    C13    O726      1.22948  1_455   S
