# CIF file generated by openbabel 2.4.90, see http://openbabel.sf.net
data_I
_chemical_name_common ''
_cell_length_a 18.087
_cell_length_b 18.087
_cell_length_c 17.825
_cell_angle_alpha 90
_cell_angle_beta 89.999
_cell_angle_gamma 119.981
_space_group_name_H-M_alt 'P 1'
_space_group_name_Hall 'P 1'
loop_
    _symmetry_equiv_pos_as_xyz
    x,y,z
loop_
    _atom_site_label
    _atom_site_type_symbol
    _atom_site_fract_x
    _atom_site_fract_y
    _atom_site_fract_z
    _atom_site_occupancy
    Zr0     Zr   0.33330   0.16672   0.24999   1.000
    Zr1     Zr   0.33330   0.66673   0.24999   1.000
    Zr2     Zr   0.83331   0.16672   0.24999   1.000
    Zr3     Zr   0.83331   0.66673   0.24999   1.000
    Zr4     Zr   0.16671   0.33329   0.74998   1.000
    Zr5     Zr   0.16672   0.83330   0.74998   1.000
    Zr6     Zr   0.66672   0.33330   0.74998   1.000
    Zr7     Zr   0.66672   0.83330   0.74998   1.000
    Zr8     Zr   0.00003   0.00002   0.99999   1.000
    Zr9     Zr   0.00002   0.50002   0.99998   1.000
    Zr10    Zr   0.50003   0.00002   0.99999   1.000
    Zr11    Zr   0.50002   0.50002   0.99998   1.000
    Zr12    Zr   0.00002   0.00002   0.49999   1.000
    Zr13    Zr   0.00002   0.50003   0.49999   1.000
    Zr14    Zr   0.50003   0.00002   0.49999   1.000
    Zr15    Zr   0.50003   0.50003   0.49999   1.000
    Zr16    Zr   0.99999   0.36405   0.20000   1.000
    Zr17    Zr   0.99999   0.86405   0.20000   1.000
    Zr18    Zr   0.50000   0.36405   0.30000   1.000
    N19     N    0.65492   0.15491   0.49995   1.000
    O20     O    0.60301   0.08046   0.47737   1.000
    O21     O    0.71534   0.14123   0.39686   1.000
    O22     O    0.58047   0.10300   0.52256   1.000
    O23     O    0.64124   0.21532   0.60307   1.000
    O24     O    0.61145   0.11144   0.49997   1.000
    N25     N    0.15491   0.15491   0.49998   1.000
    O26     O    0.21533   0.14123   0.39688   1.000
    O27     O    0.10301   0.08045   0.47739   1.000
    O28     O    0.08046   0.10300   0.52258   1.000
    O29     O    0.14123   0.21532   0.60309   1.000
    O30     O    0.11144   0.11144   0.49998   1.000
    N31     N    0.92801   0.80826   0.09083   1.000
    O32     O    0.94149   0.87862   0.06801   1.000
    O33     O    0.88986   0.76627   0.14850   1.000
    N34     N    0.65492   0.65492   0.99997   1.000
    O35     O    0.58046   0.60301   0.97738   1.000
    O36     O    0.64124   0.71533   0.89687   1.000
    O37     O    0.71534   0.64124   0.10309   1.000
    O38     O    0.61144   0.61144   0.99998   1.000
    O39     O    0.60301   0.58046   0.02257   1.000
    N40     N    0.65492   0.15492   0.99998   1.000
    O41     O    0.64124   0.21533   0.89686   1.000
    O42     O    0.71533   0.14124   0.10309   1.000
    O43     O    0.61145   0.11144   0.99999   1.000
    O44     O    0.60302   0.08046   0.02258   1.000
    O45     O    0.58047   0.10301   0.97739   1.000
    N46     N    0.15491   0.15492   0.99999   1.000
    O47     O    0.14123   0.21532   0.89688   1.000
    O48     O    0.10301   0.08046   0.02257   1.000
    O49     O    0.21532   0.14124   0.10309   1.000
    O50     O    0.11144   0.11144   0.99999   1.000
    O51     O    0.08046   0.10301   0.97739   1.000
    N52     N    0.84501   0.49992   0.00000   1.000
    O53     O    0.89700   0.47745   0.97739   1.000
    O54     O    0.85870   0.57407   0.10310   1.000
    O55     O    0.91950   0.52250   0.02259   1.000
    O56     O    0.78464   0.42581   0.89690   1.000
    O57     O    0.88852   0.49996   0.99999   1.000
    N58     N    0.84502   0.99924   0.99999   1.000
    O59     O    0.89700   0.97711   0.97738   1.000
    O60     O    0.85870   0.07373   0.10310   1.000
    O61     O    0.88853   0.99962   0.99999   1.000
    O62     O    0.91950   0.02216   0.02259   1.000
    O63     O    0.78464   0.92547   0.89689   1.000
    N64     N    0.34501   0.49993   0.99937   1.000
    O65     O    0.39699   0.47745   0.97707   1.000
    O66     O    0.35869   0.57407   0.10279   1.000
    O67     O    0.38851   0.49996   0.99967   1.000
    O68     O    0.41949   0.52250   0.02228   1.000
    O69     O    0.28463   0.42581   0.89658   1.000
    N70     N    0.34501   0.99924   0.00000   1.000
    O71     O    0.39700   0.97711   0.97739   1.000
    O72     O    0.35869   0.07373   0.10310   1.000
    O73     O    0.38852   0.99962   0.99999   1.000
    O74     O    0.41950   0.02216   0.02259   1.000
    O75     O    0.28464   0.92547   0.89690   1.000
    N76     N    0.15491   0.65492   0.99998   1.000
    O77     O    0.14123   0.71533   0.89687   1.000
    O78     O    0.21533   0.64125   0.10309   1.000
    O79     O    0.11144   0.61145   0.99998   1.000
    O80     O    0.10301   0.58047   0.02258   1.000
    O81     O    0.08046   0.60301   0.97739   1.000
    N82     N    0.65492   0.65492   0.49999   1.000
    O83     O    0.60301   0.58046   0.47739   1.000
    O84     O    0.71533   0.64124   0.39688   1.000
    O85     O    0.58046   0.60301   0.52258   1.000
    O86     O    0.64124   0.71533   0.60309   1.000
    O87     O    0.61145   0.61144   0.49999   1.000
    N88     N    0.15491   0.65492   0.49998   1.000
    O89     O    0.21533   0.64124   0.39688   1.000
    O90     O    0.10300   0.58046   0.47739   1.000
    O91     O    0.08046   0.60301   0.52258   1.000
    O92     O    0.14123   0.71533   0.60309   1.000
    O93     O    0.11144   0.61144   0.49998   1.000
    N94     N    0.42949   0.30825   0.09082   1.000
    O95     O    0.44223   0.37862   0.06801   1.000
    O96     O    0.39059   0.26626   0.14849   1.000
    N97     N    0.49992   0.84502   0.99996   1.000
    O98     O    0.47745   0.89700   0.02258   1.000
    O99     O    0.52250   0.91950   0.97737   1.000
    O100    O    0.42581   0.78465   0.10307   1.000
    O101    O    0.49997   0.88853   0.99998   1.000
    O102    O    0.57407   0.85870   0.89686   1.000
    N103    N    0.57034   0.37859   0.90909   1.000
    O104    O    0.55771   0.43629   0.93194   1.000
    O105    O    0.60928   0.37548   0.85142   1.000
    N106    N    0.49992   0.84501   0.50000   1.000
    O107    O    0.57407   0.85869   0.60310   1.000
    O108    O    0.52250   0.91949   0.52259   1.000
    O109    O    0.47745   0.89700   0.47739   1.000
    O110    O    0.42581   0.78464   0.39690   1.000
    O111    O    0.49997   0.88852   0.49999   1.000
    N112    N    0.92801   0.30825   0.09083   1.000
    O113    O    0.94149   0.37862   0.06801   1.000
    O114    O    0.88986   0.26626   0.14850   1.000
    N115    N    0.49992   0.34500   0.50000   1.000
    O116    O    0.57406   0.35869   0.60310   1.000
    O117    O    0.52250   0.41949   0.52259   1.000
    O118    O    0.47744   0.39699   0.47739   1.000
    O119    O    0.42581   0.28463   0.39690   1.000
    O120    O    0.49996   0.38852   0.49999   1.000
    N121    N    0.99923   0.34500   0.50000   1.000
    O122    O    0.02215   0.41949   0.52259   1.000
    O123    O    0.07372   0.35868   0.60310   1.000
    O124    O    0.97710   0.39699   0.47739   1.000
    O125    O    0.92547   0.28463   0.39690   1.000
    O126    O    0.99962   0.38852   0.49999   1.000
    N127    N    0.99924   0.84501   0.50000   1.000
    O128    O    0.92547   0.78464   0.39690   1.000
    O129    O    0.07372   0.85869   0.60310   1.000
    O130    O    0.02215   0.91949   0.52259   1.000
    O131    O    0.97710   0.89700   0.47739   1.000
    O132    O    0.99962   0.88852   0.49999   1.000
    N133    N    0.84501   0.49992   0.49997   1.000
    O134    O    0.91950   0.52250   0.47738   1.000
    O135    O    0.89700   0.47745   0.52258   1.000
    O136    O    0.78464   0.42581   0.60307   1.000
    O137    O    0.85870   0.57407   0.39687   1.000
    O138    O    0.88852   0.49996   0.49998   1.000
    N139    N    0.07034   0.87860   0.90908   1.000
    O140    O    0.05771   0.93629   0.93194   1.000
    O141    O    0.10927   0.87549   0.85142   1.000
    N142    N    0.07034   0.37859   0.90909   1.000
    O143    O    0.10927   0.37548   0.85143   1.000
    O144    O    0.05770   0.43628   0.93194   1.000
    N145    N    0.34501   0.49993   0.49997   1.000
    O146    O    0.41949   0.52250   0.47738   1.000
    O147    O    0.35869   0.57407   0.39687   1.000
    O148    O    0.39700   0.47745   0.52258   1.000
    O149    O    0.28464   0.42581   0.60307   1.000
    O150    O    0.38852   0.49996   0.49998   1.000
    N151    N    0.84501   0.99924   0.49997   1.000
    O152    O    0.91950   0.02216   0.47738   1.000
    O153    O    0.89700   0.97711   0.52258   1.000
    O154    O    0.78464   0.92547   0.60307   1.000
    O155    O    0.85870   0.07372   0.39687   1.000
    O156    O    0.88852   0.99961   0.49998   1.000
    N157    N    0.34501   0.99924   0.49997   1.000
    O158    O    0.41949   0.02216   0.47738   1.000
    O159    O    0.35869   0.07373   0.39687   1.000
    O160    O    0.39700   0.97711   0.52258   1.000
    O161    O    0.28464   0.92547   0.60307   1.000
    O162    O    0.38852   0.99962   0.49998   1.000
loop_
    _geom_bond_atom_site_label_1
    _geom_bond_atom_site_label_2
    _geom_bond_distance
    _geom_bond_site_symmetry_2
    _ccdc_geom_bond_type
    N19    O20       1.26226      .   S
    Zr14   O20       1.74367      .   S
    N19    O21       2.21398      .   S
    Zr2    O21       3.26131      .   S
    N19    O22       1.26247      .   S
    Zr14   O22       1.74344      .   S
    N19    O23       2.21458      .   S
    Zr6    O23       3.26188      .   S
    N19    O24       0.78654      .   S
    Zr14   O24       2.01580      .   S
    N25    O26       2.21426      .   S
    Zr0    O26       3.26158      .   S
    N25    O27       1.26237      .   S
    Zr12   O27       1.74359      .   S
    N25    O28       1.26236      .   S
    Zr12   O28       1.74352      .   S
    N25    O29       2.21429      .   S
    Zr4    O29       3.26160      .   S
    N25    O30       0.78653      .   S
    Zr12   O30       2.01580      .   S
    N31    O32       1.23874      .   S
    Zr8    O32       2.25586  1_446   S
    N31    O33       1.25943      .   S
    Zr3    O33       2.39156      .   S
    N34    O35       1.26241      .   S
    Zr11   O35       1.74360      .   S
    N34    O36       2.21429      .   S
    Zr7    O36       3.26157      .   S
    N34    O37       2.21444  1_556   S
    Zr3    O37       3.26179      .   S
    N34    O38       0.78658      .   S
    Zr11   O38       2.01586      .   S
    N34    O39       1.26237  1_556   S
    Zr11   O39       1.74368  1_556   S
    N40    O41       2.21449      .   S
    Zr6    O41       3.26147      .   S
    N40    O42       2.21440  1_556   S
    Zr2    O42       3.26175      .   S
    N40    O43       0.78651      .   S
    Zr10   O43       2.01578      .   S
    N40    O44       1.26235  1_556   S
    Zr10   O44       1.74353  1_556   S
    N40    O45       1.26237      .   S
    Zr10   O45       1.74351      .   S
    N46    O47       2.21430      .   S
    Zr4    O47       3.26164      .   S
    N46    O48       1.26227  1_556   S
    Zr8    O48       1.74346  1_556   S
    N46    O49       2.21432  1_556   S
    Zr0    O49       3.26182      .   S
    N46    O50       0.78650      .   S
    Zr8    O50       2.01578      .   S
    N46    O51       1.26236      .   S
    Zr8    O51       1.74351      .   S
    N52    O53       1.26249  1_554   S
    Zr9    O53       1.74362  1_455   S
    N52    O54       2.21484      .   S
    Zr3    O54       3.26246      .   S
    N52    O55       1.26249      .   S
    Zr9    O55       1.74370  1_456   S
    N52    O56       2.21454  1_554   S
    Zr6    O56       3.26196      .   S
    N52    O57       0.78658  1_554   S
    Zr9    O57       2.01601  1_455   S
    N58    O59       1.25817      .   S
    Zr8    O59       1.74196  1_445   S
    N58    O60       2.21831  1_566   S
    Zr2    O60       3.26613      .   S
    N58    O61       0.78357      .   S
    Zr8    O61       2.01304  1_445   S
    N58    O62       1.26130  1_566   S
    Zr8    O62       1.73972  1_456   S
    N58    O63       2.21222      .   S
    Zr7    O63       3.26072      .   S
    N64    O65       1.26078      .   S
    Zr11   O65       1.74512      .   S
    N64    O66       2.21951  1_556   S
    Zr1    O66       3.26698      .   S
    N64    O67       0.78665      .   S
    Zr11   O67       2.01626      .   S
    N64    O68       1.26436  1_556   S
    Zr11   O68       1.74262  1_556   S
    N64    O69       2.20988      .   S
    Zr4    O69       3.25745      .   S
    N70    O71       1.25826  1_554   S
    Zr10   O71       1.74213  1_545   S
    N70    O72       2.21823  1_565   S
    Zr0    O72       3.26605      .   S
    N70    O73       0.78363  1_554   S
    Zr10   O73       2.01324  1_545   S
    N70    O74       1.26133  1_565   S
    Zr10   O74       1.73994  1_556   S
    N70    O75       2.21230  1_554   S
    Zr5    O75       3.26079      .   S
    N76    O77       2.21434      .   S
    Zr5    O77       3.26161      .   S
    N76    O78       2.21438  1_556   S
    Zr1    O78       3.26174      .   S
    N76    O79       0.78659      .   S
    Zr9    O79       2.01586      .   S
    N76    O80       1.26236  1_556   S
    Zr9    O80       1.74369  1_556   S
    N76    O81       1.26241      .   S
    Zr9    O81       1.74359      .   S
    N82    O83       1.26237      .   S
    Zr15   O83       1.74359      .   S
    N82    O84       2.21426      .   S
    Zr3    O84       3.26158      .   S
    N82    O85       1.26237      .   S
    Zr15   O85       1.74352      .   S
    N82    O86       2.21430      .   S
    Zr7    O86       3.26161      .   S
    N82    O87       0.78653      .   S
    Zr15   O87       2.01580      .   S
    N88    O89       2.21426      .   S
    Zr1    O89       3.26158      .   S
    N88    O90       1.26237      .   S
    Zr13   O90       1.74358      .   S
    N88    O91       1.26236      .   S
    Zr13   O91       1.74351      .   S
    N88    O92       2.21429      .   S
    Zr5    O92       3.26160      .   S
    N88    O93       0.78653      .   S
    Zr13   O93       2.01579      .   S
    N94    O95       1.24310      .   S
    Zr11   O95       2.25626  1_556   S
    N94    O96       1.26257      .   S
    Zr0    O96       2.39253      .   S
    N97    O98       1.26252  1_556   S
    Zr10   O98       1.74366  1_546   S
    N97    O99       1.26247      .   S
    Zr10   O99       1.74375  1_545   S
    N97    O100      2.21454  1_556   S
    Zr1    O100      3.26191      .   S
    N97    O101      0.78658      .   S
    Zr10   O101      2.01609  1_545   S
    N97    O102      2.21478      .   S
    Zr7    O102      3.26239      .   S
    N103   O104      1.24308      .   S
    Zr11   O104      2.25633      .   S
    N103   O105      1.26295      .   S
    Zr6    O105      2.39241      .   S
    N106   O107      2.21483      .   S
    Zr7    O107      3.26245      .   S
    N106   O108      1.26253      .   S
    Zr14   O108      1.74370  1_545   S
    N106   O109      1.26246      .   S
    Zr14   O109      1.74370  1_545   S
    N106   O110      2.21438      .   S
    Zr1    O110      3.26181      .   S
    N106   O111      0.78659      .   S
    Zr14   O111      2.01608  1_545   S
    N112   O113      1.23880      .   S
    Zr9    O113      2.25600  1_456   S
    N112   O114      1.25942      .   S
    Zr2    O114      2.39155      .   S
    N115   O116      2.21479      .   S
    Zr6    O116      3.26241      .   S
    N115   O117      1.26258      .   S
    Zr15   O117      1.74391      .   S
    N115   O118      1.26253      .   S
    Zr15   O118      1.74389      .   S
    N115   O119      2.21442      .   S
    Zr0    O119      3.26184      .   S
    N115   O120      0.78666      .   S
    Zr15   O120      2.01629      .   S
    N121   O122      1.26132  1_655   S
    Zr13   O122      1.73990      .   S
    N121   O123      2.21822  1_655   S
    Zr4    O123      3.26605      .   S
    N121   O124      1.25821      .   S
    Zr13   O124      1.74209  1_455   S
    N121   O125      2.21212      .   S
    Zr2    O125      3.26063      .   S
    N121   O126      0.78362      .   S
    Zr13   O126      2.01322  1_455   S
    N127   O128      2.21218      .   S
    Zr3    O128      3.26069      .   S
    N127   O129      2.21818  1_655   S
    Zr5    O129      3.26601      .   S
    N127   O130      1.26124  1_655   S
    Zr12   O130      1.73973  1_545   S
    N127   O131      1.25818      .   S
    Zr12   O131      1.74189  1_445   S
    N127   O132      0.78355      .   S
    Zr12   O132      2.01303  1_445   S
    N133   O134      1.26249      .   S
    Zr13   O134      1.74374  1_455   S
    N133   O135      1.26249      .   S
    Zr13   O135      1.74365  1_455   S
    N133   O136      2.21440      .   S
    Zr6    O136      3.26179      .   S
    N133   O137      2.21479      .   S
    Zr3    O137      3.26244      .   S
    N133   O138      0.78659      .   S
    Zr13   O138      2.01607  1_455   S
    N139   O140      1.24306      .   S
    Zr8    O140      2.25627  1_545   S
    N139   O141      1.26294      .   S
    Zr5    O141      2.39240      .   S
    N142   O143      1.26301      .   S
    Zr4    O143      2.39247      .   S
    N142   O144      1.24306      .   S
    Zr9    O144      2.25630      .   S
    N145   O146      1.26254      .   S
    Zr15   O146      1.74392      .   S
    N145   O147      2.21480      .   S
    Zr1    O147      3.26245      .   S
    N145   O148      1.26256      .   S
    Zr15   O148      1.74382      .   S
    N145   O149      2.21441      .   S
    Zr4    O149      3.26180      .   S
    N145   O150      0.78665      .   S
    Zr15   O150      2.01626      .   S
    N151   O152      1.26120  1_565   S
    Zr12   O152      1.73975  1_455   S
    N151   O153      1.25821      .   S
    Zr12   O153      1.74181  1_445   S
    N151   O154      2.21219      .   S
    Zr7    O154      3.26066      .   S
    N151   O155      2.21814  1_565   S
    Zr2    O155      3.26600      .   S
    N151   O156      0.78354      .   S
    Zr12   O156      2.01301  1_445   S
    N157   O158      1.26126  1_565   S
    Zr14   O158      1.73994      .   S
    N157   O159      2.21814  1_565   S
    Zr0    O159      3.26600      .   S
    N157   O160      1.25827      .   S
    Zr14   O160      1.74200  1_545   S
    N157   O161      2.21220      .   S
    Zr5    O161      3.26067      .   S
    N157   O162      0.78360      .   S
    Zr14   O162      2.01320  1_545   S
