# CIF file generated by openbabel 2.4.90, see http://openbabel.sf.net
data_I
_chemical_name_common ''
_cell_length_a 13.841
_cell_length_b 13.841
_cell_length_c 13.841
_cell_angle_alpha 108.007
_cell_angle_beta 108.003
_cell_angle_gamma 108.002
_space_group_name_H-M_alt 'P 1'
_space_group_name_Hall 'P 1'
loop_
    _symmetry_equiv_pos_as_xyz
    x,y,z
loop_
    _atom_site_label
    _atom_site_type_symbol
    _atom_site_fract_x
    _atom_site_fract_y
    _atom_site_fract_z
    _atom_site_occupancy
    Zr0     Zr   0.95505   0.46150   0.59885   1.000
    Zr1     Zr   0.59881   0.95510   0.46151   1.000
    Zr2     Zr   0.46148   0.59884   0.95512   1.000
    Zr3     Zr   0.04492   0.53851   0.40118   1.000
    Zr4     Zr   0.40116   0.04492   0.53851   1.000
    Zr5     Zr   0.53848   0.40117   0.04490   1.000
    N6      N    0.79962   0.25591   0.59983   1.000
    O7      O    0.74002   0.14741   0.55860   1.000
    N8      N    0.20035   0.74410   0.40014   1.000
    O9      O    0.25994   0.85260   0.44137   1.000
    N10     N    0.59981   0.79965   0.25592   1.000
    O11     O    0.55858   0.74006   0.14742   1.000
    N12     N    0.25590   0.59984   0.79965   1.000
    O13     O    0.14739   0.55861   0.74007   1.000
    N14     N    0.40016   0.20036   0.74410   1.000
    O15     O    0.44139   0.25996   0.85259   1.000
    N16     N    0.74407   0.40018   0.20036   1.000
    O17     O    0.85258   0.44141   0.25995   1.000
    O18     O    0.32708   0.58313   0.84441   1.000
    O19     O    0.84437   0.32710   0.58313   1.000
    O20     O    0.67289   0.41688   0.15560   1.000
    O21     O    0.15560   0.67292   0.41687   1.000
    O22     O    0.58311   0.84441   0.32710   1.000
    O23     O    0.41686   0.15561   0.67292   1.000
loop_
    _geom_bond_atom_site_label_1
    _geom_bond_atom_site_label_2
    _geom_bond_distance
    _geom_bond_site_symmetry_2
    _ccdc_geom_bond_type
    N6     O7        1.29411      .   S
    Zr1    O7        2.37918  1_565   S
    N8     O9        1.29411      .   S
    Zr4    O9        2.37918  1_545   S
    N10    O11       1.29403      .   S
    Zr2    O11       2.37902  1_556   S
    N12    O13       1.29422      .   S
    Zr0    O13       2.37947  1_655   S
    N14    O15       1.29407      .   S
    Zr5    O15       2.37905  1_554   S
    N16    O17       1.29422      .   S
    Zr3    O17       2.37952  1_455   S
    Zr2    O18       1.90733      .   S
    N12    O18       1.12247      .   S
    Zr0    O19       1.90718      .   S
    N6     O19       1.12244      .   S
    Zr5    O20       1.90724      .   S
    N16    O20       1.12247      .   S
    Zr3    O21       1.90736      .   S
    N8     O21       1.12268      .   S
    Zr1    O22       1.90720      .   S
    N10    O22       1.12248      .   S
    Zr4    O23       1.90715      .   S
    N14    O23       1.12243      .   S
