# CIF file generated by openbabel 2.4.90, see http://openbabel.sf.net
data_I
_chemical_name_common ''
_cell_length_a 25.575
_cell_length_b 12.77
_cell_length_c 17.715
_cell_angle_alpha 89.717
_cell_angle_beta 105.363
_cell_angle_gamma 90.194
_space_group_name_H-M_alt 'P 1'
_space_group_name_Hall 'P 1'
loop_
    _symmetry_equiv_pos_as_xyz
    x,y,z
loop_
    _atom_site_label
    _atom_site_type_symbol
    _atom_site_fract_x
    _atom_site_fract_y
    _atom_site_fract_z
    _atom_site_occupancy
    C0      C    0.19044   0.68947   0.94529   1.000
    C1      C    0.69042   0.68947   0.94529   1.000
    C2      C    0.17420   0.66726   0.01312   1.000
    C3      C    0.67419   0.66726   0.01312   1.000
    C4      C    0.21151   0.63149   0.08058   1.000
    C5      C    0.71150   0.63149   0.08058   1.000
    C6      C    0.26531   0.61320   0.08132   1.000
    C7      C    0.76530   0.61319   0.08132   1.000
    C8      C    0.28117   0.63164   0.01288   1.000
    C9      C    0.78116   0.63164   0.01288   1.000
    C10     C    0.24459   0.67082   0.94609   1.000
    C11     C    0.74458   0.67082   0.94609   1.000
    C12     C    0.15169   0.73969   0.87609   1.000
    C13     C    0.65168   0.73969   0.87609   1.000
    C14     C    0.30631   0.58026   0.15473   1.000
    C15     C    0.80630   0.58026   0.15473   1.000
    C16     C    0.21863   0.08480   0.84042   1.000
    C17     C    0.71862   0.08480   0.84042   1.000
    C18     C    0.23543   0.04034   0.92249   1.000
    C19     C    0.73542   0.04034   0.92249   1.000
    C20     C    0.27629   0.96537   0.94573   1.000
    C21     C    0.77628   0.96537   0.94573   1.000
    C22     C    0.29005   0.92617   0.02215   1.000
    C23     C    0.79004   0.92617   0.02215   1.000
    C24     C    0.03381   0.91866   0.86644   1.000
    C25     C    0.53380   0.91866   0.86644   1.000
    C26     C    0.01470   0.95880   0.93439   1.000
    C27     C    0.51470   0.95879   0.93439   1.000
    C28     C    0.46290   0.99970   0.92661   1.000
    C29     C    0.96290   0.99970   0.92661   1.000
    C30     C    0.44844   0.03974   0.99130   1.000
    C31     C    0.94844   0.03974   0.99130   1.000
    C32     C    0.06103   0.19196   0.55346   1.000
    C33     C    0.56102   0.19196   0.55346   1.000
    C34     C    0.07767   0.16932   0.48628   1.000
    C35     C    0.57767   0.16932   0.48628   1.000
    C36     C    0.04083   0.13281   0.41880   1.000
    C37     C    0.54082   0.13281   0.41880   1.000
    C38     C    0.48700   0.11315   0.41774   1.000
    C39     C    0.98700   0.11315   0.41774   1.000
    C40     C    0.47095   0.13138   0.48597   1.000
    C41     C    0.97095   0.13139   0.48597   1.000
    C42     C    0.00694   0.17239   0.55229   1.000
    C43     C    0.50693   0.17239   0.55229   1.000
    C44     C    0.09909   0.24276   0.62260   1.000
    C45     C    0.59908   0.24276   0.62260   1.000
    C46     C    0.44599   0.07972   0.34456   1.000
    C47     C    0.94598   0.07973   0.34456   1.000
    C48     C    0.02990   0.58477   0.65914   1.000
    C49     C    0.52989   0.58478   0.65914   1.000
    C50     C    0.01340   0.54066   0.57724   1.000
    C51     C    0.51339   0.54067   0.57720   1.000
    C52     C    0.47184   0.46697   0.55310   1.000
    C53     C    0.97183   0.46697   0.55310   1.000
    C54     C    0.45866   0.42742   0.47706   1.000
    C55     C    0.95865   0.42742   0.47706   1.000
    C56     C    0.21624   0.42489   0.63591   1.000
    C57     C    0.71622   0.42489   0.63591   1.000
    C58     C    0.23527   0.46313   0.56716   1.000
    C59     C    0.73525   0.46313   0.56716   1.000
    C60     C    0.28717   0.50294   0.57340   1.000
    C61     C    0.78715   0.50294   0.57343   1.000
    C62     C    0.30137   0.53870   0.50711   1.000
    C63     C    0.80136   0.53870   0.50711   1.000
    C64     C    0.30950   0.31045   0.05470   1.000
    C65     C    0.80949   0.31045   0.05470   1.000
    C66     C    0.32574   0.33267   0.98687   1.000
    C67     C    0.82573   0.33267   0.98687   1.000
    C68     C    0.28844   0.36844   0.91940   1.000
    C69     C    0.78843   0.36844   0.91940   1.000
    C70     C    0.23463   0.38670   0.91865   1.000
    C71     C    0.73462   0.38670   0.91865   1.000
    C72     C    0.21877   0.36823   0.98709   1.000
    C73     C    0.71876   0.36823   0.98709   1.000
    C74     C    0.25535   0.32908   0.05389   1.000
    C75     C    0.75534   0.32908   0.05389   1.000
    C76     C    0.34823   0.26028   0.12394   1.000
    C77     C    0.84821   0.26028   0.12394   1.000
    C78     C    0.19364   0.41972   0.84526   1.000
    C79     C    0.69363   0.41972   0.84526   1.000
    C80     C    0.28085   0.91555   0.15952   1.000
    C81     C    0.78084   0.91555   0.15952   1.000
    C82     C    0.26378   0.96007   0.07743   1.000
    C83     C    0.76377   0.96006   0.07743   1.000
    O84     O    0.57777   0.84402   0.70246   1.000
    O85     O    0.42805   0.44879   0.29140   1.000
    O86     O    0.92804   0.44879   0.29142   1.000
    O87     O    0.99818   0.34057   0.32473   1.000
    C88     C    0.22299   0.03505   0.05420   1.000
    C89     C    0.72298   0.03504   0.05420   1.000
    C90     C    0.20891   0.07400   0.97767   1.000
    C91     C    0.70890   0.07400   0.97767   1.000
    C92     C    0.46596   0.08115   0.13359   1.000
    C93     C    0.96595   0.08115   0.13359   1.000
    C94     C    0.48510   0.04102   0.06560   1.000
    C95     C    0.98509   0.04102   0.06567   1.000
    C96     C    0.03692   0.00000   0.07343   1.000
    C97     C    0.53691   0.00000   0.07343   1.000
    C98     C    0.05135   0.96012   0.00874   1.000
    C99     C    0.55135   0.96012   0.00874   1.000
    C100    C    0.43894   0.80801   0.44652   1.000
    C101    C    0.93893   0.80801   0.44652   1.000
    C102    C    0.42230   0.83063   0.51370   1.000
    C103    C    0.92229   0.83063   0.51371   1.000
    C104    C    0.45915   0.86711   0.58119   1.000
    C105    C    0.95914   0.86711   0.58119   1.000
    C106    C    0.01297   0.88674   0.58226   1.000
    C107    C    0.51296   0.88674   0.58226   1.000
    C108    C    0.02902   0.86855   0.51403   1.000
    C109    C    0.52902   0.86855   0.51403   1.000
    C110    C    0.49303   0.82757   0.44770   1.000
    C111    C    0.99302   0.82757   0.44770   1.000
    C112    C    0.40087   0.75726   0.37730   1.000
    C113    C    0.90086   0.75726   0.37736   1.000
    C114    C    0.05395   0.92022   0.65540   1.000
    C115    C    0.55395   0.92022   0.65545   1.000
    F116    F    0.37086   0.81315   0.51575   1.000
    F117    F    0.87085   0.81315   0.51570   1.000
    F118    F    0.44249   0.88027   0.64678   1.000
    F119    F    0.94249   0.88027   0.64678   1.000
    F120    F    0.08052   0.88889   0.51266   1.000
    C121    C    0.47007   0.41520   0.34088   1.000
    C122    C    0.97006   0.41520   0.34088   1.000
    C123    C    0.48658   0.45932   0.42277   1.000
    C124    C    0.98657   0.45932   0.42277   1.000
    C125    C    0.02814   0.53302   0.44690   1.000
    C126    C    0.52813   0.53302   0.44690   1.000
    C127    C    0.04132   0.57257   0.52295   1.000
    C128    C    0.54131   0.57257   0.52295   1.000
    C129    C    0.28373   0.57511   0.36400   1.000
    C130    C    0.78372   0.57511   0.36407   1.000
    C131    C    0.26469   0.53685   0.43281   1.000
    C132    C    0.76467   0.53685   0.43281   1.000
    C133    C    0.21279   0.49704   0.42654   1.000
    C134    C    0.71277   0.49704   0.42654   1.000
    C135    C    0.19858   0.46128   0.49287   1.000
    C136    C    0.69857   0.46128   0.49287   1.000
    O137    O    0.16936   0.82189   0.85038   1.000
    O138    O    0.66935   0.82189   0.85038   1.000
    O139    O    0.10513   0.69789   0.85184   1.000
    O140    O    0.60512   0.69789   0.85184   1.000
    O141    O    0.31856   0.48802   0.17100   1.000
    O142    O    0.81855   0.48802   0.17100   1.000
    O143    O    0.33019   0.65638   0.20141   1.000
    O144    O    0.83018   0.65638   0.20141   1.000
    O145    O    0.17714   0.04980   0.79078   1.000
    O146    O    0.67712   0.04980   0.79078   1.000
    O147    O    0.24641   0.16093   0.82474   1.000
    O148    O    0.74640   0.16093   0.82474   1.000
    O149    O    0.07439   0.96804   0.85574   1.000
    O150    O    0.57438   0.96805   0.85574   1.000
    O151    O    0.50923   0.84045   0.82850   1.000
    O152    O    0.00000   0.84045   0.82856   1.000
    O153    O    0.08102   0.32497   0.64690   1.000
    O154    O    0.58101   0.32497   0.64696   1.000
    O155    O    0.14544   0.20103   0.64838   1.000
    O156    O    0.64543   0.20103   0.64830   1.000
    O157    O    0.43338   0.98750   0.32850   1.000
    O158    O    0.93337   0.98750   0.32850   1.000
    O159    O    0.42212   0.15597   0.29764   1.000
    O160    O    0.92212   0.15597   0.29764   1.000
    O161    O    0.07192   0.55118   0.70860   1.000
    O162    O    0.57191   0.55118   0.70860   1.000
    O163    O    0.50176   0.65938   0.67529   1.000
    O164    O    0.00000   0.65937   0.67500   1.000
    O165    O    0.17593   0.47456   0.64652   1.000
    O166    O    0.67592   0.47456   0.64652   1.000
    O167    O    0.24061   0.34677   0.67441   1.000
    O168    O    0.74060   0.34677   0.67441   1.000
    O169    O    0.33053   0.17813   0.14967   1.000
    O170    O    0.83052   0.17813   0.14967   1.000
    O171    O    0.39478   0.30209   0.14822   1.000
    O172    O    0.89477   0.30209   0.14822   1.000
    O173    O    0.18146   0.51198   0.82851   1.000
    O174    O    0.68144   0.51198   0.82851   1.000
    O175    O    0.16972   0.34365   0.79856   1.000
    O176    O    0.66970   0.34365   0.79856   1.000
    O177    O    0.32237   0.95067   0.20905   1.000
    O178    O    0.82236   0.95067   0.20905   1.000
    O179    O    0.25332   0.83908   0.17527   1.000
    O180    O    0.75331   0.83907   0.17527   1.000
    O181    O    0.42532   0.03185   0.14418   1.000
    O182    O    0.92531   0.03185   0.14418   1.000
    O183    O    0.99056   0.15930   0.17150   1.000
    O184    O    0.49055   0.15930   0.17150   1.000
    O185    O    0.41891   0.67500   0.35302   1.000
    O186    O    0.91890   0.67500   0.35302   1.000
    O187    O    0.35454   0.79909   0.35150   1.000
    O188    O    0.85453   0.79909   0.35152   1.000
    O189    O    0.06656   0.01245   0.67143   1.000
    O190    O    0.56655   0.01245   0.67143   1.000
    O191    O    0.07778   0.84402   0.70246   1.000
    O192    O    0.49818   0.34056   0.32473   1.000
    O193    O    0.32402   0.52541   0.35346   1.000
    O194    O    0.82401   0.52541   0.35346   1.000
    O195    O    0.25939   0.65327   0.32561   1.000
    O196    O    0.75938   0.65327   0.32561   1.000
    F197    F    0.12283   0.68444   0.01570   1.000
    F198    F    0.62282   0.68444   0.01570   1.000
    F199    F    0.19562   0.61757   0.14684   1.000
    F200    F    0.69561   0.61757   0.14684   1.000
    F201    F    0.33304   0.61337   0.01234   1.000
    F202    F    0.83303   0.61337   0.01234   1.000
    F203    F    0.26210   0.68897   0.88213   1.000
    F204    F    0.76209   0.68897   0.88213   1.000
    F205    F    0.30209   0.92915   0.89417   1.000
    F206    F    0.80209   0.92915   0.89418   1.000
    F207    F    0.32939   0.85338   0.04333   1.000
    F208    F    0.82938   0.85338   0.04333   1.000
    F209    F    0.42670   0.00415   0.85602   1.000
    F210    F    0.92669   0.00415   0.85602   1.000
    F211    F    0.39822   0.07982   0.98101   1.000
    F212    F    0.89821   0.07982   0.98101   1.000
    F213    F    0.12911   0.18682   0.48423   1.000
    F214    F    0.62911   0.18682   0.48423   1.000
    F215    F    0.05749   0.11969   0.35321   1.000
    F216    F    0.55748   0.11969   0.35321   1.000
    F217    F    0.41945   0.11108   0.48733   1.000
    F218    F    0.91944   0.11108   0.48733   1.000
    F219    F    0.48889   0.19117   0.61551   1.000
    F220    F    0.98889   0.19117   0.61551   1.000
    F221    F    0.44455   0.43147   0.60330   1.000
    F222    F    0.94454   0.43147   0.60330   1.000
    F223    F    0.41831   0.35614   0.45610   1.000
    F224    F    0.91830   0.35614   0.45616   1.000
    F225    F    0.32371   0.51061   0.64360   1.000
    F226    F    0.82370   0.51061   0.64360   1.000
    F227    F    0.35161   0.57797   0.51574   1.000
    F228    F    0.85160   0.57797   0.51574   1.000
    F229    F    0.37712   0.31552   0.98430   1.000
    F230    F    0.87711   0.31553   0.98430   1.000
    F231    F    0.30436   0.38240   0.85317   1.000
    F232    F    0.80435   0.38240   0.85317   1.000
    F233    F    0.16692   0.38661   0.98765   1.000
    F234    F    0.66691   0.38661   0.98765   1.000
    F235    F    0.23787   0.31102   0.11789   1.000
    F236    F    0.73786   0.31102   0.11789   1.000
    F237    F    0.19760   0.07113   0.10617   1.000
    F238    F    0.69760   0.07114   0.10617   1.000
    F239    F    0.16909   0.14612   0.95651   1.000
    F240    F    0.66909   0.14612   0.95651   1.000
    F241    F    0.07322   0.99585   0.14396   1.000
    F242    F    0.57322   0.99585   0.14396   1.000
    F243    F    0.10159   0.92015   0.01901   1.000
    F244    F    0.60159   0.92014   0.01901   1.000
    F245    F    0.58051   0.88889   0.51266   1.000
    F246    F    0.01109   0.80881   0.38448   1.000
    F247    F    0.51109   0.80880   0.38448   1.000
    F248    F    0.05544   0.56850   0.39670   1.000
    F249    F    0.55543   0.56850   0.39670   1.000
    F250    F    0.08167   0.64384   0.54384   1.000
    F251    F    0.58166   0.64384   0.54384   1.000
    F252    F    0.17622   0.48937   0.35600   1.000
    F253    F    0.67620   0.48937   0.35600   1.000
    F254    F    0.14835   0.42200   0.48425   1.000
    F255    F    0.64834   0.42200   0.48425   1.000
loop_
    _geom_bond_atom_site_label_1
    _geom_bond_atom_site_label_2
    _geom_bond_distance
    _geom_bond_site_symmetry_2
    _ccdc_geom_bond_type
    C99    F244      1.35062      .   S
    C99    C97       1.39288  1_565   S
    C99    C27       1.39990  1_554   S
    C98    F243      1.35065      .   S
    C98    C96       1.39286  1_565   S
    C98    C26       1.39988  1_554   S
    F201   C8        1.35015      .   S
    F202   C9        1.35015      .   S
    C9     C7        1.39540      .   S
    C9     C11       1.39157  1_554   S
    C8     C6        1.39539      .   S
    C8     C10       1.39156  1_554   S
    C2     F197      1.34552      .   S
    C2     C4        1.39305      .   S
    C2     C0        1.39891  1_554   S
    C3     F198      1.34554      .   S
    C3     C5        1.39306      .   S
    C3     C1        1.39890  1_554   S
    C22    F207      1.34901      .   S
    C22    C82       1.39735      .   S
    C22    C20       1.39613  1_554   S
    C23    F208      1.34900      .   S
    C23    C83       1.39736      .   S
    C23    C21       1.39613  1_554   S
    C75    C65       1.40234      .   S
    C75    F236      1.34302      .   S
    C75    C73       1.39155  1_554   S
    C74    C64       1.40233      .   S
    C74    F235      1.34305      .   S
    C74    C72       1.39157  1_554   S
    C88    C82       1.39631  1_545   S
    C88    F237      1.34339      .   S
    C88    C90       1.39679  1_554   S
    C89    C83       1.39629  1_545   S
    C89    F238      1.34335      .   S
    C89    C91       1.39679  1_554   S
    C65    C77       1.49949      .   S
    C65    C67       1.39892  1_554   S
    C64    C76       1.49951      .   S
    C64    C66       1.39894  1_554   S
    C94    C97       1.39878      .   S
    C94    C92       1.50761      .   S
    C94    C30       1.39922  1_554   S
    C95    C96       1.39925  1_655   S
    C95    C93       1.50652      .   S
    C95    C31       1.40016  1_554   S
    C96    F241      1.34569  1_545   S
    C97    F242      1.34569  1_545   S
    C82    C80       1.51185      .   S
    C83    C81       1.51185      .   S
    C4     C6        1.39310      .   S
    C4     F199      1.35081      .   S
    C5     C7        1.39308      .   S
    C5     F200      1.35078      .   S
    C6     C14       1.49752      .   S
    C7     C15       1.49752      .   S
    C77    O172      1.27065      .   S
    C77    O170      1.27059      .   S
    C76    O171      1.27062      .   S
    C76    O169      1.27061      .   S
    C93    O182      1.26885      .   S
    C93    O183      1.27329      .   S
    C92    O181      1.26882      .   S
    C92    O184      1.27319      .   S
    C14    O141      1.23287      .   S
    C14    O143      1.31829      .   S
    C15    O142      1.23287      .   S
    C15    O144      1.31829      .   S
    C81    O180      1.27445      .   S
    C81    O178      1.26709      .   S
    C80    O179      1.27446      .   S
    C80    O177      1.26709      .   S
    O85    C121      1.26795      .   S
    O86    C122      1.26781      .   S
    O159   C46       1.31861      .   S
    O160   C47       1.31860      .   S
    O87    C122      1.27433      .   S
    O192   C121      1.27416      .   S
    O195   C129      1.27267      .   S
    O196   C130      1.27318      .   S
    O157   C46       1.23451  1_565   S
    O158   C47       1.23451  1_565   S
    C122   C124      1.51067      .   S
    C121   C123      1.51069      .   S
    C47    C39       1.49835      .   S
    C46    C38       1.49833      .   S
    O187   C112      1.27007      .   S
    O188   C113      1.27016      .   S
    O185   C112      1.27055      .   S
    O186   C113      1.27100      .   S
    F216   C37       1.35070      .   S
    F215   C36       1.35072      .   S
    O193   C129      1.26767      .   S
    O194   C130      1.26812      .   S
    F253   C134      1.35179      .   S
    F252   C133      1.35176      .   S
    C129   C131      1.50630      .   S
    C130   C132      1.50520      .   S
    C112   C100      1.49747      .   S
    C113   C101      1.49682      .   S
    F246   C111      1.34269  1_455   S
    F247   C110      1.34248      .   S
    F248   C125      1.34411      .   S
    F249   C126      1.34408      .   S
    C38    C37       1.39352      .   S
    C38    C40       1.39644      .   S
    C39    C36       1.39379  1_655   S
    C39    C41       1.39642      .   S
    C36    C34       1.39284      .   S
    C37    C35       1.39284      .   S
    C123   C126      1.39793      .   S
    C123   C54       1.39962      .   S
    C124   C125      1.39812  1_655   S
    C124   C55       1.39961      .   S
    C133   C131      1.39662      .   S
    C133   C135      1.39320      .   S
    C134   C132      1.39665      .   S
    C134   C136      1.39319      .   S
    C132   C63       1.39967      .   S
    C131   C62       1.39968      .   S
    C100   C110      1.39979      .   S
    C100   C102      1.39761      .   S
    C101   C111      1.39976      .   S
    C101   C103      1.39776      .   S
    C125   C127      1.39594      .   S
    C126   C128      1.39595      .   S
    C110   C109      1.38972      .   S
    C111   C108      1.38985  1_655   S
    F223   C54       1.35100      .   S
    F224   C55       1.35093      .   S
    C54    C52       1.39578      .   S
    C55    C53       1.39578      .   S
    F214   C35       1.34361      .   S
    F213   C34       1.34361      .   S
    F255   C136      1.34827      .   S
    F254   C135      1.34825      .   S
    C41    F218      1.34805      .   S
    C41    C42       1.38982  1_655   S
    C40    F217      1.34806      .   S
    C40    C43       1.38970      .   S
    C35    C33       1.39773      .   S
    C34    C32       1.39770      .   S
    C136   C59       1.39953      .   S
    C135   C58       1.39954      .   S
    C62    F227      1.34827      .   S
    C62    C60       1.39258      .   S
    C63    F228      1.34828      .   S
    C63    C61       1.39306      .   S
    F120   C108      1.34806      .   S
    F245   C109      1.34807      .   S
    C102   F116      1.34355      .   S
    C102   C104      1.39284      .   S
    C103   F117      1.34325      .   S
    C103   C105      1.39271      .   S
    C108   C106      1.39632      .   S
    C109   C107      1.39633      .   S
    C128   F251      1.35088      .   S
    C128   C51       1.39905      .   S
    C127   F250      1.35088      .   S
    C127   C50       1.39961      .   S
    C43    C33       1.39975      .   S
    C43    F219      1.34233      .   S
    C42    C32       1.39972      .   S
    C42    F220      1.34254  1_455   S
    C53    C50       1.39810  1_655   S
    C53    F222      1.34403      .   S
    C52    C51       1.39786      .   S
    C52    F221      1.34400      .   S
    C33    C45       1.49672      .   S
    C32    C44       1.49674      .   S
    C59    C61       1.39658      .   S
    C59    C57       1.50506      .   S
    C58    C60       1.39667      .   S
    C58    C56       1.50507      .   S
    C60    F225      1.34705      .   S
    C61    F226      1.34660      .   S
    C51    C49       1.51138      .   S
    C50    C48       1.51075      .   S
    C104   C107      1.39342      .   S
    C104   F118      1.35069      .   S
    C105   C106      1.39372  1_655   S
    C105   F119      1.35069      .   S
    C107   C115      1.49825      .   S
    C106   C114      1.49765      .   S
    C44    O153      1.27053      .   S
    C44    O155      1.27011      .   S
    C45    O154      1.27101      .   S
    C45    O156      1.26994      .   S
    C56    O165      1.26812      .   S
    C56    O167      1.27332      .   S
    C57    O166      1.26812      .   S
    C57    O168      1.27329      .   S
    C114   O189      1.23452  1_565   S
    C114   O191      1.31915      .   S
    C115   O190      1.23436  1_565   S
    C115   O84       1.31870      .   S
    C49    O163      1.27408      .   S
    C49    O162      1.26778      .   S
    C48    O164      1.30094      .   S
    C48    O161      1.26779      .   S
    O145   C16       1.26704      .   S
    O146   C17       1.26705      .   S
    O175   C78       1.31843      .   S
    O176   C79       1.31844      .   S
    O147   C16       1.27449      .   S
    O148   C17       1.27450      .   S
    O151   C25       1.27379      .   S
    O174   C79       1.23427      .   S
    O173   C78       1.23426      .   S
    O152   C24       1.37421      .   S
    C17    C19       1.51100      .   S
    C16    C18       1.51100      .   S
    C79    C71       1.49748      .   S
    C78    C70       1.49749      .   S
    O137   C12       1.27067      .   S
    O138   C13       1.27067      .   S
    O140   C13       1.27060      .   S
    O139   C12       1.27060      .   S
    F232   C69       1.35081      .   S
    F231   C68       1.35078      .   S
    O150   C25       1.26876      .   S
    O149   C24       1.26877      .   S
    F210   C29       1.34549  1_545   S
    F209   C28       1.34547  1_545   S
    C24    C26       1.50658      .   S
    C25    C27       1.50656      .   S
    C12    C0        1.49960      .   S
    C13    C1        1.49958      .   S
    F204   C11       1.34308      .   S
    F203   C10       1.34305      .   S
    F205   C20       1.34514      .   S
    F206   C21       1.34503      .   S
    C71    C69       1.39313      .   S
    C71    C73       1.39550      .   S
    C70    C68       1.39310      .   S
    C70    C72       1.39550      .   S
    C68    C66       1.39309      .   S
    C69    C67       1.39309      .   S
    C19    C21       1.39743  1_545   S
    C19    C91       1.39924      .   S
    C18    C20       1.39742  1_545   S
    C18    C90       1.39926      .   S
    C29    C26       1.39807  1_655   S
    C29    C31       1.39395  1_565   S
    C28    C27       1.39782      .   S
    C28    C30       1.39393  1_565   S
    C1     C11       1.40242      .   S
    C0     C10       1.40240      .   S
    F239   C90       1.35138      .   S
    F240   C91       1.35138      .   S
    F212   C31       1.35076      .   S
    F211   C30       1.35077      .   S
    F229   C66       1.34543      .   S
    F230   C67       1.34540      .   S
    C72    F233      1.35007      .   S
    C73    F234      1.35005      .   S
