# CIF file generated by openbabel 2.4.90, see http://openbabel.sf.net
data_I
_chemical_name_common ''
_cell_length_a 25.575
_cell_length_b 12.77
_cell_length_c 17.715
_cell_angle_alpha 89.717
_cell_angle_beta 105.363
_cell_angle_gamma 90.194
_space_group_name_H-M_alt 'P 1'
_space_group_name_Hall 'P 1'
loop_
    _symmetry_equiv_pos_as_xyz
    x,y,z
loop_
    _atom_site_label
    _atom_site_type_symbol
    _atom_site_fract_x
    _atom_site_fract_y
    _atom_site_fract_z
    _atom_site_occupancy
    N0      N    0.49990   0.99992   0.00000   1.000
    N1      N    0.97706   0.84299   0.51601   1.000
    N2      N    0.47706   0.84299   0.51601   1.000
    N3      N    0.99987   0.49999   0.49999   1.000
    N4      N    0.49998   0.49999   0.50000   1.000
    N5      N    0.22888   0.65577   0.01511   1.000
    N6      N    0.72887   0.65577   0.01511   1.000
    N7      N    0.24965   0.00010   0.99998   1.000
    N8      N    0.74964   0.00010   0.99998   1.000
    N9      N    0.52290   0.15698   0.48396   1.000
    N10     N    0.02290   0.15698   0.48396   1.000
    N11     N    0.24998   0.49999   0.49996   1.000
    N12     N    0.74997   0.49999   0.49997   1.000
    N13     N    0.99932   0.99993   0.00001   1.000
    N14     N    0.77106   0.34419   0.98486   1.000
    N15     N    0.27107   0.34419   0.98486   1.000
    Zr16    Zr   0.70660   0.24796   0.73477   1.000
    O17     O    0.72233   0.17511   0.81232   1.000
    O18     O    0.72169   0.32332   0.66852   1.000
    O19     O    0.65303   0.21935   0.66126   1.000
    O20     O    0.71810   0.28398   0.80527   1.000
    Zr21    Zr   0.79334   0.75213   0.26517   1.000
    O22     O    0.77741   0.82499   0.18763   1.000
    O23     O    0.78183   0.71607   0.19468   1.000
    O24     O    0.84692   0.78071   0.33867   1.000
    O25     O    0.77825   0.67674   0.33142   1.000
    Zr26    Zr   0.54256   0.74315   0.76641   1.000
    O27     O    0.59696   0.71565   0.83926   1.000
    O28     O    0.52773   0.81951   0.83257   1.000
    O29     O    0.53059   0.78072   0.69582   1.000
    O30     O    0.52682   0.67189   0.68842   1.000
    Zr31    Zr   0.04257   0.74315   0.76641   1.000
    O32     O    0.03059   0.78072   0.69582   1.000
    O33     O    0.02644   0.81951   0.83258   1.000
    O34     O    0.09697   0.71565   0.83926   1.000
    O35     O    0.02657   0.67189   0.68838   1.000
    Zr36    Zr   0.37537   0.06221   0.20936   1.000
    O37     O    0.33732   0.03274   0.15698   1.000
    O38     O    0.34369   0.14719   0.14577   1.000
    O39     O    0.41275   0.04284   0.14887   1.000
    O40     O    0.41810   0.09762   0.28905   1.000
    Zr41    Zr   0.45733   0.25680   0.23365   1.000
    O42     O    0.40294   0.28431   0.16077   1.000
    O43     O    0.47212   0.18040   0.16747   1.000
    O44     O    0.46932   0.21924   0.30423   1.000
    O45     O    0.47310   0.32807   0.31162   1.000
    Zr46    Zr   0.12467   0.43999   0.70925   1.000
    O47     O    0.16690   0.40400   0.78932   1.000
    O48     O    0.08687   0.46889   0.65685   1.000
    O49     O    0.09377   0.35486   0.64513   1.000
    O50     O    0.16240   0.45931   0.64909   1.000
    Zr51    Zr   0.29335   0.75213   0.26517   1.000
    O52     O    0.27742   0.82499   0.18763   1.000
    O53     O    0.28184   0.71607   0.19468   1.000
    O54     O    0.34693   0.78071   0.33867   1.000
    O55     O    0.27826   0.67674   0.33142   1.000
    Zr56    Zr   0.37529   0.55998   0.29073   1.000
    O57     O    0.40618   0.64511   0.35484   1.000
    O58     O    0.41305   0.53108   0.34313   1.000
    O59     O    0.33305   0.59598   0.21066   1.000
    O60     O    0.33755   0.54066   0.35088   1.000
    Zr61    Zr   0.62448   0.93777   0.79073   1.000
    O62     O    0.66235   0.96736   0.84305   1.000
    O63     O    0.65618   0.85278   0.85428   1.000
    O64     O    0.58707   0.95709   0.85117   1.000
    O65     O    0.58178   0.90235   0.71102   1.000
    Zr66    Zr   0.12449   0.93777   0.79073   1.000
    O67     O    0.16236   0.96735   0.84305   1.000
    O68     O    0.08179   0.90235   0.71102   1.000
    O69     O    0.15619   0.85278   0.85428   1.000
    O70     O    0.08693   0.95709   0.85118   1.000
    Zr71    Zr   0.95732   0.25680   0.23365   1.000
    O72     O    0.97306   0.32807   0.31162   1.000
    O73     O    0.97197   0.18040   0.16747   1.000
    O74     O    0.96931   0.21925   0.30423   1.000
    O75     O    0.90293   0.28431   0.16077   1.000
    Zr76    Zr   0.87528   0.55998   0.29073   1.000
    O77     O    0.83304   0.59598   0.21066   1.000
    O78     O    0.90617   0.64511   0.35484   1.000
    O79     O    0.83754   0.54066   0.35088   1.000
    O80     O    0.91302   0.53108   0.34313   1.000
    Zr81    Zr   0.20661   0.24796   0.73477   1.000
    O82     O    0.22234   0.17511   0.81232   1.000
    O83     O    0.21811   0.28398   0.80527   1.000
    O84     O    0.15304   0.21935   0.66127   1.000
    O85     O    0.22170   0.32332   0.66852   1.000
    Zr86    Zr   0.62466   0.43999   0.70925   1.000
    O87     O    0.59376   0.35486   0.64514   1.000
    O88     O    0.58689   0.46889   0.65686   1.000
    O89     O    0.66239   0.45931   0.64909   1.000
    O90     O    0.66689   0.40400   0.78932   1.000
    Zr91    Zr   0.87536   0.06221   0.20936   1.000
    O92     O    0.83731   0.03274   0.15698   1.000
    O93     O    0.91260   0.04284   0.14887   1.000
    O94     O    0.91809   0.09762   0.28905   1.000
    O95     O    0.84368   0.14719   0.14577   1.000
loop_
    _geom_bond_atom_site_label_1
    _geom_bond_atom_site_label_2
    _geom_bond_distance
    _geom_bond_site_symmetry_2
    _ccdc_geom_bond_type
    Zr16   O17       1.61600      .   S
    N8     O17       3.90400      .   S
    Zr16   O18       1.63665      .   S
    N12    O18       3.94915      .   S
    Zr16   O19       1.66205      .   S
    N9     O19       4.00543      .   S
    Zr16   O20       1.29144      .   S
    N14    O20       3.20646      .   S
    Zr21   O22       1.61609      .   S
    N8     O22       3.90413  1_546   S
    Zr21   O23       1.29143      .   S
    N6     O23       3.20648      .   S
    Zr21   O24       1.66199      .   S
    N1     O24       4.00568      .   S
    Zr21   O25       1.63698      .   S
    N12    O25       3.94957      .   S
    Zr26   O27       1.66489      .   S
    N6     O27       4.01187  1_554   S
    Zr26   O28       1.64852      .   S
    N0     O28       3.97612  1_554   S
    Zr26   O29       1.29612      .   S
    N2     O29       3.21307      .   S
    Zr26   O30       1.61691      .   S
    N4     O30       3.90889      .   S
    Zr31   O32       1.29613      .   S
    N1     O32       3.21312  1_655   S
    Zr31   O33       1.66292      .   S
    N13    O33       3.96920  1_654   S
    Zr31   O34       1.66490      .   S
    N5     O34       4.01189  1_554   S
    Zr31   O35       1.61761      .   S
    N3     O35       3.90866  1_655   S
    Zr36   O37       1.21345      .   S
    N7     O37       3.10436  1_556   S
    Zr36   O38       1.61660      .   S
    N15    O38       3.88063  1_556   S
    Zr36   O39       1.63399      .   S
    N0     O39       3.91926  1_565   S
    Zr36   O40       1.60526      .   S
    N9     O40       3.84570      .   S
    Zr41   O42       1.66491      .   S
    N15    O42       4.01201  1_556   S
    Zr41   O43       1.64882      .   S
    N0     O43       3.97647  1_565   S
    Zr41   O44       1.29582      .   S
    N9     O44       3.21220      .   S
    Zr41   O45       1.61665      .   S
    N4     O45       3.90832      .   S
    Zr46   O47       1.60462      .   S
    N15    O47       3.84426      .   S
    Zr46   O48       1.20648      .   S
    N3     O48       3.09026  1_655   S
    Zr46   O49       1.62084      .   S
    N10    O49       3.88854      .   S
    Zr46   O50       1.63372      .   S
    N11    O50       3.92160      .   S
    Zr51   O52       1.61609      .   S
    N7     O52       3.90414  1_546   S
    Zr51   O53       1.29143      .   S
    N5     O53       3.20648      .   S
    Zr51   O54       1.66195      .   S
    N2     O54       4.00564      .   S
    Zr51   O55       1.63694      .   S
    N11    O55       3.94946      .   S
    Zr56   O57       1.62074      .   S
    N2     O57       3.88862      .   S
    Zr56   O58       1.20616      .   S
    N4     O58       3.08933      .   S
    Zr56   O59       1.60477      .   S
    N5     O59       3.84432      .   S
    Zr56   O60       1.63347      .   S
    N11    O60       3.92088      .   S
    Zr61   O62       1.21044      .   S
    N8     O62       3.09898  1_545   S
    Zr61   O63       1.61645      .   S
    N6     O63       3.88030  1_554   S
    Zr61   O64       1.63391      .   S
    N0     O64       3.91889  1_554   S
    Zr61   O65       1.60523      .   S
    N2     O65       3.84597      .   S
    Zr66   O67       1.21045      .   S
    N7     O67       3.09899  1_545   S
    Zr66   O68       1.60526      .   S
    N1     O68       3.84606  1_655   S
    Zr66   O69       1.61645      .   S
    N5     O69       3.88031  1_554   S
    Zr66   O70       1.63678      .   S
    N13    O70       3.92737  1_654   S
    Zr71   O72       1.61660      .   S
    N3     O72       3.90830      .   S
    Zr71   O73       1.64730      .   S
    N13    O73       3.97227  1_565   S
    Zr71   O74       1.29583      .   S
    N10    O74       3.21225  1_455   S
    Zr71   O75       1.66492      .   S
    N14    O75       4.01203  1_556   S
    Zr76   O77       1.60476      .   S
    N6     O77       3.84431      .   S
    Zr76   O78       1.62076      .   S
    N1     O78       3.88867      .   S
    Zr76   O79       1.63350      .   S
    N12    O79       3.92097      .   S
    Zr76   O80       1.20578      .   S
    N3     O80       3.08829      .   S
    Zr81   O82       1.61599      .   S
    N7     O82       3.90399      .   S
    Zr81   O83       1.29144      .   S
    N15    O83       3.20647      .   S
    Zr81   O84       1.66197      .   S
    N10    O84       4.00562      .   S
    Zr81   O85       1.63669      .   S
    N11    O85       3.94924      .   S
    Zr86   O87       1.62075      .   S
    N9     O87       3.88858      .   S
    Zr86   O88       1.20600      .   S
    N4     O88       3.08905      .   S
    Zr86   O89       1.63368      .   S
    N12    O89       3.92149      .   S
    Zr86   O90       1.60461      .   S
    N14    O90       3.84425      .   S
    Zr91   O92       1.21346      .   S
    N8     O92       3.10435  1_556   S
    Zr91   O93       1.63121      .   S
    N13    O93       3.91105  1_565   S
    Zr91   O94       1.60529      .   S
    N10    O94       3.84580  1_455   S
    Zr91   O95       1.61661      .   S
    N14    O95       3.88063  1_556   S
