# CIF file generated by openbabel 2.4.90, see http://openbabel.sf.net
data_I
_chemical_name_common ''
_cell_length_a 25.575
_cell_length_b 12.77
_cell_length_c 17.715
_cell_angle_alpha 89.717
_cell_angle_beta 105.363
_cell_angle_gamma 90.194
_space_group_name_H-M_alt 'P 1'
_space_group_name_Hall 'P 1'
loop_
    _symmetry_equiv_pos_as_xyz
    x,y,z
loop_
    _atom_site_label
    _atom_site_type_symbol
    _atom_site_fract_x
    _atom_site_fract_y
    _atom_site_fract_z
    _atom_site_occupancy
    Zr0     Zr   0.04257   0.74315   0.76641   1.000
    Zr1     Zr   0.54256   0.74315   0.76641   1.000
    Zr2     Zr   0.12449   0.93777   0.79073   1.000
    Zr3     Zr   0.62448   0.93777   0.79073   1.000
    Zr4     Zr   0.20661   0.24796   0.73477   1.000
    Zr5     Zr   0.70660   0.24796   0.73477   1.000
    Zr6     Zr   0.12467   0.43999   0.70925   1.000
    Zr7     Zr   0.62466   0.43999   0.70925   1.000
    Zr8     Zr   0.45733   0.25680   0.23365   1.000
    Zr9     Zr   0.95732   0.25680   0.23365   1.000
    Zr10    Zr   0.37537   0.06221   0.20936   1.000
    Zr11    Zr   0.87536   0.06221   0.20936   1.000
    Zr12    Zr   0.29335   0.75213   0.26517   1.000
    Zr13    Zr   0.79334   0.75213   0.26517   1.000
    Zr14    Zr   0.37529   0.55998   0.29073   1.000
    Zr15    Zr   0.87528   0.55998   0.29073   1.000
    N16     N    0.49990   0.99992   0.00000   1.000
    O17     O    0.45012   0.02348   0.08839   1.000
    O18     O    0.48692   0.10399   0.10129   1.000
    O19     O    0.54966   0.97642   0.91162   1.000
    O20     O    0.51290   0.89586   0.89873   1.000
    N21     N    0.97706   0.84299   0.51601   1.000
    O22     O    0.93707   0.73024   0.41894   1.000
    O23     O    0.90050   0.80930   0.41218   1.000
    O24     O    0.01862   0.81829   0.62522   1.000
    O25     O    0.03909   0.86694   0.63130   1.000
    N26     N    0.47706   0.84299   0.51601   1.000
    O27     O    0.43708   0.73024   0.41894   1.000
    O28     O    0.40050   0.80930   0.41217   1.000
    O29     O    0.51861   0.81829   0.62522   1.000
    O30     O    0.53909   0.86694   0.63130   1.000
    N31     N    0.99987   0.49999   0.49999   1.000
    O32     O    0.04908   0.49779   0.60446   1.000
    O33     O    0.01058   0.60063   0.61035   1.000
    O34     O    0.95076   0.50219   0.39553   1.000
    O35     O    0.98881   0.39934   0.38959   1.000
    N36     N    0.49998   0.49999   0.50000   1.000
    O37     O    0.45082   0.50219   0.39553   1.000
    O38     O    0.54913   0.49779   0.60446   1.000
    O39     O    0.51107   0.60063   0.61042   1.000
    O40     O    0.48887   0.39934   0.38959   1.000
    N41     N    0.22888   0.65577   0.01511   1.000
    O42     O    0.18790   0.76780   0.91783   1.000
    O43     O    0.27033   0.68001   0.12420   1.000
    O44     O    0.29081   0.63197   0.13059   1.000
    O45     O    0.15136   0.68815   0.91212   1.000
    N46     N    0.72887   0.65577   0.01511   1.000
    O47     O    0.77032   0.68001   0.12420   1.000
    O48     O    0.79080   0.63197   0.13059   1.000
    O49     O    0.68789   0.76780   0.91783   1.000
    O50     O    0.65135   0.68815   0.91212   1.000
    N51     N    0.24965   0.00010   0.99998   1.000
    O52     O    0.29926   0.00327   0.10459   1.000
    O53     O    0.26149   0.89785   0.11010   1.000
    O54     O    0.20023   0.99694   0.89537   1.000
    O55     O    0.23808   0.10227   0.88987   1.000
    N56     N    0.74964   0.00010   0.99998   1.000
    O57     O    0.79925   0.00327   0.10459   1.000
    O58     O    0.76148   0.89785   0.11010   1.000
    O59     O    0.73807   0.10227   0.88987   1.000
    O60     O    0.70022   0.99694   0.89537   1.000
    N61     N    0.52290   0.15698   0.48396   1.000
    O62     O    0.56286   0.26973   0.58103   1.000
    O63     O    0.59946   0.19074   0.58775   1.000
    O64     O    0.48131   0.18169   0.37480   1.000
    O65     O    0.46082   0.13304   0.36873   1.000
    N66     N    0.02290   0.15698   0.48396   1.000
    O67     O    0.06287   0.26973   0.58102   1.000
    O68     O    0.09946   0.19074   0.58777   1.000
    O69     O    0.98131   0.18169   0.37480   1.000
    O70     O    0.96082   0.13304   0.36873   1.000
    N71     N    0.24998   0.49999   0.49996   1.000
    O72     O    0.29982   0.52134   0.41103   1.000
    O73     O    0.26317   0.60135   0.39768   1.000
    O74     O    0.20014   0.47863   0.58892   1.000
    O75     O    0.23680   0.39868   0.60228   1.000
    N76     N    0.74997   0.49999   0.49997   1.000
    O77     O    0.73678   0.39868   0.60228   1.000
    O78     O    0.79981   0.52134   0.41103   1.000
    O79     O    0.76316   0.60135   0.39768   1.000
    O80     O    0.70013   0.47863   0.58893   1.000
    N81     N    0.99932   0.99993   0.00001   1.000
    O82     O    0.94983   0.02348   0.08839   1.000
    O83     O    0.98663   0.10399   0.10129   1.000
    O84     O    0.04938   0.97642   0.91162   1.000
    O85     O    0.01030   0.89586   0.89875   1.000
    N86     N    0.77106   0.34419   0.98486   1.000
    O87     O    0.72960   0.31999   0.87576   1.000
    O88     O    0.70912   0.36800   0.86938   1.000
    O89     O    0.81200   0.23218   0.08219   1.000
    O90     O    0.84855   0.31182   0.08790   1.000
    N91     N    0.27107   0.34419   0.98486   1.000
    O92     O    0.31201   0.23218   0.08219   1.000
    O93     O    0.34856   0.31182   0.08790   1.000
    O94     O    0.22961   0.31999   0.87576   1.000
    O95     O    0.20913   0.36800   0.86938   1.000
loop_
    _geom_bond_atom_site_label_1
    _geom_bond_atom_site_label_2
    _geom_bond_distance
    _geom_bond_site_symmetry_2
    _ccdc_geom_bond_type
    N16    O17       2.28603  1_565   S
    Zr10   O17       3.26798      .   S
    N16    O18       2.33190  1_565   S
    Zr8    O18       3.29765      .   S
    N16    O19       2.28575  1_554   S
    Zr3    O19       3.26783      .   S
    N16    O20       2.33187  1_554   S
    Zr1    O20       3.29703      .   S
    N21    O22       2.27123      .   S
    Zr15   O22       3.24151      .   S
    N21    O23       2.34438      .   S
    Zr13   O23       3.32398      .   S
    N21    O24       1.96947  1_655   S
    Zr0    O24       2.59225      .   S
    N21    O25       2.25124  1_655   S
    Zr2    O25       3.21052      .   S
    N26    O27       2.27120      .   S
    Zr14   O27       3.24148      .   S
    N26    O28       2.34438      .   S
    Zr12   O28       3.32389      .   S
    N26    O29       1.96943      .   S
    Zr1    O29       2.59225      .   S
    N26    O30       2.25118      .   S
    Zr3    O30       3.21047      .   S
    N31    O32       1.94302  1_655   S
    Zr6    O32       2.41296      .   S
    N31    O33       2.29944  1_655   S
    Zr0    O33       3.23521      .   S
    N31    O34       1.94180      .   S
    Zr15   O34       2.41156      .   S
    N31    O35       2.29915      .   S
    Zr9    O35       3.23320      .   S
    N36    O37       1.94244      .   S
    Zr14   O37       2.41231      .   S
    N36    O38       1.94234      .   S
    Zr7    O38       2.41200      .   S
    N36    O39       2.29939      .   S
    Zr1    O39       3.23382      .   S
    N36    O40       2.29909      .   S
    Zr8    O40       3.23329      .   S
    N41    O42       2.26791  1_554   S
    Zr2    O42       3.23291      .   S
    N41    O43       1.96785      .   S
    Zr12   O43       2.58286      .   S
    N41    O44       2.25085      .   S
    Zr14   O44       3.20953      .   S
    N41    O45       2.34761  1_554   S
    Zr0    O45       3.32980      .   S
    N46    O47       1.96785      .   S
    Zr13   O47       2.58287      .   S
    N46    O48       2.25085      .   S
    Zr15   O48       3.20953      .   S
    N46    O49       2.26791  1_554   S
    Zr3    O49       3.23290      .   S
    N46    O50       2.34761  1_554   S
    Zr1    O50       3.32978      .   S
    N51    O52       1.94949  1_556   S
    Zr10   O52       2.42690      .   S
    N51    O53       2.29493  1_546   S
    Zr12   O53       3.23218      .   S
    N51    O54       1.94747  1_545   S
    Zr2    O54       2.42090      .   S
    N51    O55       2.29487      .   S
    Zr4    O55       3.23199      .   S
    N56    O57       1.94949  1_556   S
    Zr11   O57       2.42691      .   S
    N56    O58       2.29492  1_546   S
    Zr13   O58       3.23217      .   S
    N56    O59       2.29487      .   S
    Zr5    O59       3.23199      .   S
    N56    O60       1.94747  1_545   S
    Zr3    O60       2.42087      .   S
    N61    O62       2.27116      .   S
    Zr7    O62       3.24150      .   S
    N61    O63       2.34407      .   S
    Zr5    O63       3.32409      .   S
    N61    O64       1.96888      .   S
    Zr8    O64       2.59165      .   S
    N61    O65       2.25089      .   S
    Zr10   O65       3.21051      .   S
    N66    O67       2.27101      .   S
    Zr6    O67       3.24168      .   S
    N66    O68       2.34433      .   S
    Zr4    O68       3.32394      .   S
    N66    O69       1.96893  1_455   S
    Zr9    O69       2.59166      .   S
    N66    O70       2.25096  1_455   S
    Zr11   O70       3.21058      .   S
    N71    O72       2.28876      .   S
    Zr14   O72       3.26694      .   S
    N71    O73       2.31738      .   S
    Zr12   O73       3.27388      .   S
    N71    O74       2.28922      .   S
    Zr6    O74       3.26744      .   S
    N71    O75       2.31743      .   S
    Zr4    O75       3.27337      .   S
    N76    O77       2.31737      .   S
    Zr5    O77       3.27331      .   S
    N76    O78       2.28881      .   S
    Zr15   O78       3.26701      .   S
    N76    O79       2.31744      .   S
    Zr13   O79       3.27396      .   S
    N76    O80       2.28915      .   S
    Zr7    O80       3.26737      .   S
    N81    O82       2.28063  1_565   S
    Zr11   O82       3.26241      .   S
    N81    O83       2.32929  1_565   S
    Zr9    O83       3.29460      .   S
    N81    O84       2.29135  1_654   S
    Zr2    O84       3.27356      .   S
    N81    O85       2.31424  1_654   S
    Zr0    O85       3.32584      .   S
    N86    O87       1.96789      .   S
    Zr5    O87       2.58287      .   S
    N86    O88       2.25093      .   S
    Zr7    O88       3.20923      .   S
    N86    O89       2.26808  1_556   S
    Zr11   O89       3.23321      .   S
    N86    O90       2.34774  1_556   S
    Zr9    O90       3.32984      .   S
    N91    O92       2.26809  1_556   S
    Zr10   O92       3.23321      .   S
    N91    O93       2.34773  1_556   S
    Zr8    O93       3.32982      .   S
    N91    O94       1.96789      .   S
    Zr4    O94       2.58287      .   S
    N91    O95       2.25092      .   S
    Zr6    O95       3.20924      .   S
