# CIF file generated by openbabel 2.4.90, see http://openbabel.sf.net
data_I
_chemical_name_common 'VESTA_phase_1'
_cell_length_a 21.028
_cell_length_b 18.14
_cell_length_c 18.136
_cell_angle_alpha 119.953
_cell_angle_beta 89.998
_cell_angle_gamma 89.995
_space_group_name_H-M_alt 'P 1'
_space_group_name_Hall 'P 1'
loop_
    _symmetry_equiv_pos_as_xyz
    x,y,z
loop_
    _atom_site_label
    _atom_site_type_symbol
    _atom_site_fract_x
    _atom_site_fract_y
    _atom_site_fract_z
    _atom_site_occupancy
    Zn0     Zn   0.27785   0.55060   0.07570   1.000
    Zn1     Zn   0.77786   0.55052   0.07500   1.000
    Zn2     Zn   0.11120   0.52531   0.44960   1.000
    Zn3     Zn   0.61119   0.52526   0.44951   1.000
    Zn4     Zn   0.44453   0.92436   0.47506   1.000
    Zn5     Zn   0.94452   0.92433   0.47511   1.000
    Zn6     Zn   0.02785   0.44923   0.92431   1.000
    Zn7     Zn   0.52785   0.44938   0.92426   1.000
    Zn8     Zn   0.36119   0.47471   0.55044   1.000
    Zn9     Zn   0.86119   0.47459   0.55034   1.000
    Zn10    Zn   0.19451   0.07558   0.52495   1.000
    Zn11    Zn   0.69452   0.07553   0.52476   1.000
    H12     H    0.34605   0.37502   0.79549   1.000
    H13     H    0.84605   0.37490   0.79544   1.000
    H14     H    0.28190   0.37437   0.73148   1.000
    H15     H    0.78191   0.37430   0.73145   1.000
    H16     H    0.30626   0.27820   0.72595   1.000
    H17     H    0.80622   0.27811   0.72592   1.000
    H18     H    0.20771   0.32633   0.80610   1.000
    H19     H    0.70769   0.32632   0.80613   1.000
    H20     H    0.28412   0.25222   0.84970   1.000
    H21     H    0.78407   0.25215   0.84966   1.000
    H22     H    0.23816   0.32590   0.93788   1.000
    H23     H    0.73810   0.32582   0.93783   1.000
    H24     H    0.31757   0.35092   0.92835   1.000
    H25     H    0.81752   0.35083   0.92834   1.000
    H26     H    0.21322   0.47416   0.85062   1.000
    H27     H    0.71330   0.47415   0.85059   1.000
    H28     H    0.32943   0.62701   0.98080   1.000
    H29     H    0.82959   0.62685   0.98076   1.000
    H30     H    0.24704   0.62341   0.95623   1.000
    H31     H    0.74720   0.62340   0.95626   1.000
    H32     H    0.40824   0.53646   0.85444   1.000
    H33     H    0.90828   0.53610   0.85424   1.000
    H34     H    0.21598   0.59407   0.81372   1.000
    H35     H    0.71609   0.59420   0.81380   1.000
    H36     H    0.24781   0.54971   0.66455   1.000
    H37     H    0.74785   0.54981   0.66460   1.000
    H38     H    0.43149   0.49525   0.70442   1.000
    H39     H    0.93146   0.49487   0.70421   1.000
    H40     H    0.32828   0.47917   0.92819   1.000
    H41     H    0.82832   0.47906   0.92819   1.000
    H42     H    0.17955   0.42031   0.62489   1.000
    H43     H    0.67959   0.42026   0.62475   1.000
    H44     H    0.11554   0.35670   0.62538   1.000
    H45     H    0.61558   0.35669   0.62532   1.000
    H46     H    0.13971   0.44726   0.72165   1.000
    H47     H    0.63980   0.44726   0.72155   1.000
    H48     H    0.04109   0.47905   0.67339   1.000
    H49     H    0.54115   0.47908   0.67337   1.000
    H50     H    0.11722   0.59688   0.74773   1.000
    H51     H    0.61731   0.59687   0.74762   1.000
    H52     H    0.07123   0.61137   0.67400   1.000
    H53     H    0.57131   0.61135   0.67389   1.000
    H54     H    0.15072   0.57718   0.64910   1.000
    H55     H    0.65079   0.57711   0.64895   1.000
    H56     H    0.04680   0.37603   0.52553   1.000
    H57     H    0.54679   0.37602   0.52551   1.000
    H58     H    0.16307   0.35403   0.37280   1.000
    H59     H    0.66294   0.35396   0.37271   1.000
    H60     H    0.08067   0.33296   0.37622   1.000
    H61     H    0.58055   0.33294   0.37617   1.000
    H62     H    0.24169   0.31795   0.46350   1.000
    H63     H    0.74167   0.31778   0.46313   1.000
    H64     H    0.04948   0.21962   0.40534   1.000
    H65     H    0.54939   0.21965   0.40539   1.000
    H66     H    0.08119   0.11471   0.44960   1.000
    H67     H    0.58114   0.11473   0.44969   1.000
    H68     H    0.26481   0.20905   0.50466   1.000
    H69     H    0.76484   0.20886   0.50424   1.000
    H70     H    0.16174   0.44890   0.52073   1.000
    H71     H    0.66172   0.44879   0.52058   1.000
    H72     H    0.01274   0.20425   0.57915   1.000
    H73     H    0.51271   0.20436   0.57905   1.000
    H74     H    0.44860   0.26841   0.64240   1.000
    H75     H    0.94863   0.26834   0.64245   1.000
    H76     H    0.47288   0.27389   0.55160   1.000
    H77     H    0.97300   0.27380   0.55174   1.000
    H78     H    0.37433   0.19378   0.51989   1.000
    H79     H    0.87441   0.19374   0.51986   1.000
    H80     H    0.45065   0.15013   0.40216   1.000
    H81     H    0.95080   0.15002   0.40219   1.000
    H82     H    0.40468   0.06202   0.38791   1.000
    H83     H    0.90479   0.06194   0.38792   1.000
    H84     H    0.48412   0.07149   0.42233   1.000
    H85     H    0.98421   0.07139   0.42243   1.000
    H86     H    0.37991   0.14937   0.62338   1.000
    H87     H    0.87986   0.14935   0.62338   1.000
    H88     H    0.49624   0.01925   0.64621   1.000
    H89     H    0.99606   0.01912   0.64629   1.000
    H90     H    0.41384   0.04377   0.66722   1.000
    H91     H    0.91367   0.04375   0.66725   1.000
    H92     H    0.07487   0.14555   0.68200   1.000
    H93     H    0.57491   0.14581   0.68179   1.000
    H94     H    0.38276   0.18608   0.78038   1.000
    H95     H    0.88263   0.18613   0.78030   1.000
    H96     H    0.41453   0.33516   0.88522   1.000
    H97     H    0.91448   0.33516   0.88517   1.000
    H98     H    0.09814   0.29541   0.79085   1.000
    H99     H    0.59811   0.29570   0.79063   1.000
    H100    H    0.49497   0.07181   0.55087   1.000
    H101    H    0.99494   0.07178   0.55100   1.000
    H102    H    0.09612   0.62476   0.20442   1.000
    H103    H    0.59601   0.62499   0.20455   1.000
    H104    H    0.03201   0.62542   0.26850   1.000
    H105    H    0.53184   0.62560   0.26852   1.000
    H106    H    0.05635   0.72159   0.27401   1.000
    H107    H    0.55617   0.72179   0.27400   1.000
    H108    H    0.45767   0.67364   0.19382   1.000
    H109    H    0.95777   0.67350   0.19392   1.000
    H110    H    0.03414   0.74760   0.15031   1.000
    H111    H    0.53409   0.74777   0.15032   1.000
    H112    H    0.48815   0.67411   0.06212   1.000
    H113    H    0.98814   0.67397   0.06218   1.000
    H114    H    0.06755   0.64889   0.07160   1.000
    H115    H    0.56757   0.64908   0.07166   1.000
    H116    H    0.46323   0.52581   0.14935   1.000
    H117    H    0.96330   0.52566   0.14940   1.000
    H118    H    0.07955   0.37286   0.01916   1.000
    H119    H    0.57949   0.37301   0.01914   1.000
    H120    H    0.99717   0.37637   0.04374   1.000
    H121    H    0.49710   0.37656   0.04372   1.000
    H122    H    0.15832   0.46344   0.14557   1.000
    H123    H    0.65823   0.46368   0.14559   1.000
    H124    H    0.46603   0.40577   0.18619   1.000
    H125    H    0.96608   0.40576   0.18626   1.000
    H126    H    0.99787   0.45023   0.33547   1.000
    H127    H    0.49784   0.45014   0.33537   1.000
    H128    H    0.18152   0.50476   0.29561   1.000
    H129    H    0.68145   0.50490   0.29560   1.000
    H130    H    0.07832   0.52066   0.07176   1.000
    H131    H    0.57829   0.52083   0.07176   1.000
    H132    H    0.42961   0.57971   0.37518   1.000
    H133    H    0.92955   0.57963   0.37504   1.000
    H134    H    0.36561   0.64334   0.37468   1.000
    H135    H    0.86552   0.64323   0.37455   1.000
    H136    H    0.38981   0.55278   0.27841   1.000
    H137    H    0.88972   0.55267   0.27828   1.000
    H138    H    0.29116   0.52100   0.32662   1.000
    H139    H    0.79111   0.52084   0.32652   1.000
    H140    H    0.36730   0.40317   0.25228   1.000
    H141    H    0.86729   0.40306   0.25220   1.000
    H142    H    0.32130   0.38866   0.32590   1.000
    H143    H    0.82132   0.38854   0.32593   1.000
    H144    H    0.40078   0.42285   0.35090   1.000
    H145    H    0.90079   0.42278   0.35084   1.000
    H146    H    0.29681   0.62398   0.47448   1.000
    H147    H    0.79678   0.62388   0.47439   1.000
    H148    H    0.41303   0.64596   0.62717   1.000
    H149    H    0.91297   0.64587   0.62710   1.000
    H150    H    0.33064   0.66705   0.62379   1.000
    H151    H    0.83058   0.66693   0.62370   1.000
    H152    H    0.49173   0.68210   0.53669   1.000
    H153    H    0.99164   0.68194   0.53652   1.000
    H154    H    0.29946   0.78034   0.59458   1.000
    H155    H    0.79943   0.78033   0.59464   1.000
    H156    H    0.33120   0.88522   0.55023   1.000
    H157    H    0.83117   0.88525   0.55034   1.000
    H158    H    0.01480   0.79086   0.49540   1.000
    H159    H    0.51488   0.79099   0.49554   1.000
    H160    H    0.41175   0.55111   0.47932   1.000
    H161    H    0.91172   0.55104   0.47924   1.000
    H162    H    0.26273   0.79556   0.42088   1.000
    H163    H    0.76285   0.79570   0.42084   1.000
    H164    H    0.19861   0.73154   0.35754   1.000
    H165    H    0.69880   0.73156   0.35746   1.000
    H166    H    0.22291   0.72601   0.44824   1.000
    H167    H    0.72310   0.72612   0.44820   1.000
    H168    H    0.12436   0.80615   0.48012   1.000
    H169    H    0.62447   0.80609   0.47995   1.000
    H170    H    0.20072   0.84975   0.59778   1.000
    H171    H    0.70076   0.84985   0.59771   1.000
    H172    H    0.15474   0.93788   0.61210   1.000
    H173    H    0.65473   0.93791   0.61194   1.000
    H174    H    0.23416   0.92840   0.57761   1.000
    H175    H    0.73417   0.92851   0.57750   1.000
    H176    H    0.12989   0.85057   0.37663   1.000
    H177    H    0.62997   0.85049   0.37646   1.000
    H178    H    0.24615   0.98072   0.35377   1.000
    H179    H    0.74619   0.98071   0.35361   1.000
    H180    H    0.16375   0.95619   0.33280   1.000
    H181    H    0.66380   0.95616   0.33263   1.000
    H182    H    0.32487   0.85418   0.31813   1.000
    H183    H    0.82496   0.85422   0.31788   1.000
    H184    H    0.13268   0.81387   0.21968   1.000
    H185    H    0.63271   0.81378   0.21962   1.000
    H186    H    0.16448   0.66480   0.11483   1.000
    H187    H    0.66451   0.66469   0.11483   1.000
    H188    H    0.34809   0.70429   0.20920   1.000
    H189    H    0.84818   0.70431   0.20910   1.000
    H190    H    0.24495   0.92811   0.44908   1.000
    H191    H    0.74499   0.92812   0.44890   1.000
    C192    C    0.29934   0.34662   0.76947   1.000
    C193    C    0.79934   0.34654   0.76944   1.000
    C194    C    0.25164   0.35948   0.83864   1.000
    C195    C    0.75164   0.35943   0.83862   1.000
    C196    C    0.27433   0.32026   0.89166   1.000
    C197    C    0.77429   0.32018   0.89163   1.000
    C198    C    0.23187   0.45351   0.89427   1.000
    C199    C    0.73190   0.45349   0.89425   1.000
    C200    C    0.29200   0.58789   0.93599   1.000
    C201    C    0.79212   0.58780   0.93596   1.000
    C202    C    0.30914   0.56754   0.84692   1.000
    C203    C    0.80921   0.56742   0.84687   1.000
    C204    C    0.37053   0.54009   0.81501   1.000
    C205    C    0.87057   0.53983   0.81487   1.000
    C206    C    0.26436   0.57224   0.79234   1.000
    C207    C    0.76444   0.57225   0.79235   1.000
    C208    C    0.28144   0.54784   0.70915   1.000
    C209    C    0.78148   0.54784   0.70910   1.000
    C210    C    0.38428   0.51663   0.73123   1.000
    C211    C    0.88428   0.51637   0.73100   1.000
    C212    C    0.17495   0.46349   0.95215   1.000
    C213    C    0.67496   0.46352   0.95211   1.000
    C214    C    0.13284   0.42246   0.65320   1.000
    C215    C    0.63289   0.42244   0.65311   1.000
    C216    C    0.08502   0.47864   0.64034   1.000
    C217    C    0.58507   0.47863   0.64020   1.000
    C218    C    0.10750   0.57091   0.67960   1.000
    C219    C    0.60757   0.57089   0.67956   1.000
    C220    C    0.06533   0.44036   0.54625   1.000
    C221    C    0.56532   0.44033   0.54620   1.000
    C222    C    0.12557   0.34818   0.41187   1.000
    C223    C    0.62548   0.34813   0.41175   1.000
    C224    C    0.14262   0.27936   0.43215   1.000
    C225    C    0.64256   0.27930   0.43199   1.000
    C226    C    0.20396   0.27487   0.45975   1.000
    C227    C    0.70393   0.27474   0.45945   1.000
    C228    C    0.09783   0.22004   0.42728   1.000
    C229    C    0.59776   0.22003   0.42720   1.000
    C230    C    0.11484   0.16119   0.45166   1.000
    C231    C    0.61479   0.16117   0.45158   1.000
    C232    C    0.21764   0.21449   0.48316   1.000
    C233    C    0.71764   0.21435   0.48284   1.000
    C234    C    0.00831   0.48812   0.53627   1.000
    C235    C    0.50832   0.48814   0.53627   1.000
    C236    C    0.46600   0.23040   0.57669   1.000
    C237    C    0.96606   0.23032   0.57675   1.000
    C238    C    0.41827   0.16127   0.52055   1.000
    C239    C    0.91833   0.16121   0.52057   1.000
    C240    C    0.44088   0.10820   0.42834   1.000
    C241    C    0.94099   0.10811   0.42839   1.000
    C242    C    0.39854   0.10571   0.55914   1.000
    C243    C    0.89852   0.10568   0.55916   1.000
    C244    C    0.45877   0.06405   0.65188   1.000
    C245    C    0.95864   0.06397   0.65194   1.000
    C246    C    0.47586   0.15310   0.72051   1.000
    C247    C    0.97578   0.15300   0.72059   1.000
    C248    C    0.03716   0.18492   0.72505   1.000
    C249    C    0.53720   0.18513   0.72489   1.000
    C250    C    0.43110   0.20755   0.77987   1.000
    C251    C    0.93101   0.20752   0.77987   1.000
    C252    C    0.44815   0.29068   0.83870   1.000
    C253    C    0.94810   0.29063   0.83870   1.000
    C254    C    0.05093   0.26861   0.78542   1.000
    C255    C    0.55093   0.26883   0.78526   1.000
    C256    C    0.34161   0.04783   0.51139   1.000
    C257    C    0.84161   0.04779   0.51134   1.000
    C258    C    0.04942   0.65317   0.23049   1.000
    C259    C    0.54929   0.65337   0.23050   1.000
    C260    C    0.50162   0.64052   0.16135   1.000
    C261    C    0.00000   0.64034   0.16137   1.000
    C262    C    0.02433   0.67957   0.10830   1.000
    C263    C    0.52432   0.67974   0.10834   1.000
    C264    C    0.48187   0.54648   0.10571   1.000
    C265    C    0.98192   0.54630   0.10576   1.000
    C266    C    0.04210   0.41194   0.06399   1.000
    C267    C    0.54204   0.41210   0.06397   1.000
    C268    C    0.05922   0.43231   0.15307   1.000
    C269    C    0.55915   0.43246   0.15305   1.000
    C270    C    0.12060   0.45981   0.18500   1.000
    C271    C    0.62052   0.46000   0.18500   1.000
    C272    C    0.01444   0.42762   0.20765   1.000
    C273    C    0.51439   0.42767   0.20760   1.000
    C274    C    0.03150   0.45209   0.29080   1.000
    C275    C    0.53146   0.45207   0.29079   1.000
    C276    C    0.13433   0.48332   0.26879   1.000
    C277    C    0.63426   0.48344   0.26877   1.000
    C278    C    0.42494   0.53645   0.04784   1.000
    C279    C    0.92497   0.53634   0.04792   1.000
    C280    C    0.38291   0.57758   0.34685   1.000
    C281    C    0.88284   0.57748   0.34673   1.000
    C282    C    0.33508   0.52139   0.35969   1.000
    C283    C    0.83504   0.52127   0.35959   1.000
    C284    C    0.35756   0.42912   0.32034   1.000
    C285    C    0.85756   0.42901   0.32026   1.000
    C286    C    0.31535   0.55966   0.45376   1.000
    C287    C    0.81531   0.55956   0.45367   1.000
    C288    C    0.37555   0.65183   0.58817   1.000
    C289    C    0.87549   0.65172   0.58800   1.000
    C290    C    0.39263   0.72064   0.56790   1.000
    C291    C    0.89257   0.72055   0.56785   1.000
    C292    C    0.45399   0.72516   0.54039   1.000
    C293    C    0.95391   0.72503   0.54027   1.000
    C294    C    0.34783   0.77993   0.57270   1.000
    C295    C    0.84778   0.77989   0.57271   1.000
    C296    C    0.36485   0.83877   0.54832   1.000
    C297    C    0.86481   0.83876   0.54837   1.000
    C298    C    0.46769   0.78553   0.51698   1.000
    C299    C    0.96762   0.78543   0.51689   1.000
    C300    C    0.25834   0.51188   0.46371   1.000
    C301    C    0.75831   0.51178   0.46364   1.000
    C302    C    0.21602   0.76952   0.42325   1.000
    C303    C    0.71616   0.76960   0.42318   1.000
    C304    C    0.16829   0.83866   0.47943   1.000
    C305    C    0.66837   0.83867   0.47930   1.000
    C306    C    0.19093   0.89170   0.57160   1.000
    C307    C    0.69096   0.89176   0.57151   1.000
    C308    C    0.14853   0.89423   0.44087   1.000
    C309    C    0.64858   0.89419   0.44070   1.000
    C310    C    0.20870   0.93592   0.34812   1.000
    C311    C    0.70874   0.93590   0.34795   1.000
    C312    C    0.22580   0.84687   0.27947   1.000
    C313    C    0.72586   0.84685   0.27932   1.000
    C314    C    0.28715   0.81485   0.27505   1.000
    C315    C    0.78723   0.81487   0.27485   1.000
    C316    C    0.18104   0.79241   0.22015   1.000
    C317    C    0.68108   0.79235   0.22000   1.000
    C318    C    0.19810   0.70928   0.16132   1.000
    C319    C    0.69814   0.70921   0.16127   1.000
    C320    C    0.30090   0.73115   0.21469   1.000
    C321    C    0.80097   0.73115   0.21453   1.000
    C322    C    0.09161   0.95213   0.48866   1.000
    C323    C    0.59163   0.95206   0.48847   1.000
    Br324   Br   0.29162   0.45921   0.13390   1.000
    Br325   Br   0.79151   0.45908   0.13386   1.000
    Br326   Br   0.12462   0.67479   0.54126   1.000
    Br327   Br   0.62472   0.67473   0.54110   1.000
    Br328   Br   0.45812   0.86609   0.32546   1.000
    Br329   Br   0.95825   0.86597   0.32552   1.000
    Br330   Br   0.04156   0.54060   0.86606   1.000
    Br331   Br   0.54157   0.54077   0.86604   1.000
    Br332   Br   0.37467   0.32524   0.45877   1.000
    Br333   Br   0.87469   0.32511   0.45872   1.000
    Br334   Br   0.20819   0.13387   0.67453   1.000
    Br335   Br   0.70818   0.13389   0.67436   1.000
    N336    N    0.28515   0.51059   0.94443   1.000
    N337    N    0.78521   0.51051   0.94442   1.000
    N338    N    0.34030   0.51955   0.67817   1.000
    N339    N    0.84030   0.51941   0.67809   1.000
    N340    N    0.11862   0.43374   0.48927   1.000
    N341    N    0.61859   0.43369   0.48917   1.000
    N342    N    0.17365   0.15848   0.48007   1.000
    N343    N    0.67364   0.15839   0.47986   1.000
    N344    N    0.45186   0.05559   0.56613   1.000
    N345    N    0.95181   0.05555   0.56620   1.000
    N346    N    0.00696   0.32160   0.84140   1.000
    N347    N    0.50696   0.32174   0.84131   1.000
    N348    N    0.03520   0.48924   0.05555   1.000
    N349    N    0.53517   0.48941   0.05554   1.000
    N350    N    0.09034   0.48043   0.32185   1.000
    N351    N    0.59029   0.48045   0.32180   1.000
    N352    N    0.36863   0.56627   0.51076   1.000
    N353    N    0.86859   0.56617   0.51067   1.000
    N354    N    0.42369   0.84151   0.51998   1.000
    N355    N    0.92364   0.84146   0.51990   1.000
    N356    N    0.20183   0.94435   0.43386   1.000
    N357    N    0.70186   0.94433   0.43369   1.000
    N358    N    0.25693   0.67823   0.15866   1.000
    N359    N    0.75699   0.67819   0.15858   1.000
    O360    O    0.12794   0.41556   0.91505   1.000
    O361    O    0.62793   0.41563   0.91499   1.000
    O362    O    0.17759   0.51865   0.03130   1.000
    O363    O    0.67760   0.51864   0.03127   1.000
    O364    O    0.46127   0.49854   0.58405   1.000
    O365    O    0.96125   0.49845   0.58000   1.000
    O366    O    0.01094   0.51253   0.48137   1.000
    O367    O    0.51094   0.51256   0.48138   1.000
    O368    O    0.29458   0.08492   0.50054   1.000
    O369    O    0.79460   0.08487   0.50040   1.000
    O370    O    0.34428   0.96870   0.48740   1.000
    O371    O    0.84428   0.96866   0.48739   1.000
    O372    O    0.37791   0.58437   0.08495   1.000
    O373    O    0.87795   0.58423   0.08508   1.000
    O374    O    0.42760   0.48132   0.96868   1.000
    O375    O    0.92762   0.48127   0.96874   1.000
    O376    O    0.21128   0.50155   0.41598   1.000
    O377    O    0.71127   0.50133   0.41584   1.000
    O378    O    0.26095   0.48749   0.51862   1.000
    O379    O    0.76094   0.48738   0.51854   1.000
    O380    O    0.04458   0.91506   0.49957   1.000
    O381    O    0.54462   0.91495   0.49933   1.000
    O382    O    0.09428   0.03127   0.51259   1.000
    O383    O    0.59429   0.03121   0.51249   1.000
loop_
    _geom_bond_atom_site_label_1
    _geom_bond_atom_site_label_2
    _geom_bond_distance
    _geom_bond_site_symmetry_2
    _ccdc_geom_bond_type
    H119   C267      1.09915      .   S
    H118   C266      1.09912      .   S
    O363   Zn1       2.22496      .   S
    O363   C213      1.27692  1_554   S
    O362   Zn0       2.22788      .   S
    O362   C212      1.27693  1_554   S
    H121   C267      1.09879      .   S
    H120   C266      1.09879  1_655   S
    C278   O372      1.26565      .   S
    C278   C264      1.54189      .   S
    C278   O374      1.27696  1_554   S
    C279   O373      1.26565      .   S
    C279   C265      1.54202      .   S
    C279   O375      1.27695  1_554   S
    N349   C267      1.49161      .   S
    N349   H131      1.03267      .   S
    N349   C264      1.48815      .   S
    N349   Zn7       2.11974  1_554   S
    N348   C266      1.49167      .   S
    N348   H130      1.03271      .   S
    N348   C265      1.48808  1_455   S
    N348   Zn6       2.11915  1_554   S
    H112   C263      1.09811      .   S
    H113   C262      1.09746  1_655   S
    C267   C269      1.51003      .   S
    C266   C268      1.50999      .   S
    H114   C262      1.09939      .   S
    H115   C263      1.09972      .   S
    Zn1    O373      2.17379      .   S
    Zn1    Br325     2.39612      .   S
    Zn1    N359      2.08516      .   S
    Zn1    N337      2.10776  1_554   S
    Zn0    O372      2.17451      .   S
    Zn0    Br324     2.38611      .   S
    Zn0    N358      2.08293      .   S
    Zn0    N336      2.11957  1_554   S
    C264   H116      1.10311      .   S
    C264   C260      1.54335      .   S
    C265   H117      1.10254      .   S
    C265   C261      1.53423  1_655   S
    C262   H110      1.09861      .   S
    C262   C261      1.54233      .   S
    C263   H111      1.09850      .   S
    C263   C260      1.53022      .   S
    H187   C319      1.08752      .   S
    H186   C318      1.08749      .   S
    H122   C270      1.09166      .   S
    H123   C271      1.09165      .   S
    C269   C271      1.40055      .   S
    C269   C273      1.39927      .   S
    C268   C270      1.40057      .   S
    C268   C272      1.39924      .   S
    N359   C319      1.35005      .   S
    N359   C321      1.35465      .   S
    N358   C318      1.35007      .   S
    N358   C320      1.35465      .   S
    C319   C317      1.39052      .   S
    C318   C316      1.39080      .   S
    C260   H108      1.09934      .   S
    C260   C259      1.52973      .   S
    C261   H109      1.06968  1_455   S
    C261   C258      1.55380      .   S
    C271   C277      1.38828      .   S
    C270   C276      1.38825      .   S
    H124   C273      1.09028      .   S
    H125   C272      1.09014  1_655   S
    H102   C258      1.10001      .   S
    H103   C259      1.09983      .   S
    C273   C275      1.39077      .   S
    C272   C274      1.38974      .   S
    H189   C321      1.08812      .   S
    H188   C320      1.08792      .   S
    C321   C315      1.38830      .   S
    C320   C314      1.38827      .   S
    H185   C317      1.09006      .   S
    H184   C316      1.09028      .   S
    C317   C313      1.39986      .   S
    C316   C312      1.39937      .   S
    C258   H104      1.09958      .   S
    C258   H106      1.09837      .   S
    C259   H105      1.10026      .   S
    C259   H107      1.09829      .   S
    H141   C285      1.09852      .   S
    H140   C284      1.09857      .   S
    C277   H129      1.08811      .   S
    C277   N351      1.35457      .   S
    C276   H128      1.08809      .   S
    C276   N350      1.35456      .   S
    C315   C313      1.40058      .   S
    C315   H183      1.09169      .   S
    C314   C312      1.40061      .   S
    C314   H182      1.09166      .   S
    H137   C281      1.09848      .   S
    H136   C280      1.09838      .   S
    C313   C311      1.51003      .   S
    C312   C310      1.51006      .   S
    C275   N351      1.35008      .   S
    C275   H127      1.08758      .   S
    C274   N350      1.35034      .   S
    C274   H126      1.08845  1_455   S
    C285   H143      1.09814      .   S
    C285   H145      1.09966      .   S
    C285   C283      1.53024      .   S
    C284   H142      1.09745      .   S
    C284   H144      1.09950      .   S
    C284   C282      1.53023      .   S
    N351   Zn3       2.08296      .   S
    N350   Zn2       2.08317      .   S
    Br328  Zn4       2.38670      .   S
    Br329  Zn5       2.38665      .   S
    H139   C283      1.09929      .   S
    H138   C282      1.09932      .   S
    H181   C311      1.09879      .   S
    H180   C310      1.09893      .   S
    C281   C283      1.53028      .   S
    C281   H135      1.09949      .   S
    C281   H133      1.10000      .   S
    C280   C282      1.53032      .   S
    C280   H134      1.09949      .   S
    C280   H132      1.09998      .   S
    C311   H179      1.09913      .   S
    C311   N357      1.49153      .   S
    C310   H178      1.09912      .   S
    C310   N356      1.49153      .   S
    H165   C303      1.09949      .   S
    H164   C302      1.09952      .   S
    C283   C287      1.54347      .   S
    C282   C286      1.54333      .   S
    H59    C223      1.09909      .   S
    H58    C222      1.10016      .   S
    H61    C223      1.09880      .   S
    H60    C222      1.09878      .   S
    H177   C309      1.10305      .   S
    H176   C308      1.10309      .   S
    H82    C240      1.09807      .   S
    H83    C241      1.09814      .   S
    H80    C240      1.09847      .   S
    H81    C241      1.09856      .   S
    H64    C228      1.09028      .   S
    H65    C229      1.09015      .   S
    C223   C225      1.51007      .   S
    C223   N341      1.49168      .   S
    C222   C224      1.51010      .   S
    C222   N340      1.49171      .   S
    O377   Zn3       2.17377      .   S
    O377   C301      1.26562      .   S
    O376   Zn2       2.17345      .   S
    O376   C300      1.26560      .   S
    H163   C303      1.10000      .   S
    H162   C302      1.10004      .   S
    H84    C240      1.09970      .   S
    H85    C241      1.09967      .   S
    C303   H167      1.09842      .   S
    C303   C305      1.53033      .   S
    C302   H166      1.09842      .   S
    C302   C304      1.53031      .   S
    C229   C225      1.39922      .   S
    C229   C231      1.39114      .   S
    C228   C224      1.39939      .   S
    C228   C230      1.39085      .   S
    C240   C238      1.53027      .   S
    C241   C239      1.53023      .   S
    C225   C227      1.40054      .   S
    C224   C226      1.40055      .   S
    N357   C309      1.48820      .   S
    N357   H191      1.03253      .   S
    N357   Zn11      2.11912  1_565   S
    N356   C308      1.48819      .   S
    N356   H190      1.03269      .   S
    N356   Zn10      2.11950  1_565   S
    C309   C305      1.54336      .   S
    C309   C323      1.54201      .   S
    C308   C304      1.54336      .   S
    C308   C322      1.54197      .   S
    Zn3    O367      2.22804      .   S
    Zn3    N341      2.11993      .   S
    Zn3    Br327     2.38637      .   S
    H66    C230      1.08699      .   S
    Zn2    O366      2.22791      .   S
    Zn2    N340      2.12005      .   S
    Zn2    Br326     2.38630      .   S
    H67    C231      1.08756      .   S
    C231   N343      1.35008      .   S
    C230   N342      1.35006      .   S
    C287   C301      1.54186      .   S
    C287   H147      1.10300      .   S
    C287   N353      1.48813      .   S
    C286   C300      1.54189      .   S
    C286   H146      1.10301      .   S
    C286   N352      1.48807      .   S
    Br333  Zn9       2.38632      .   S
    Br332  Zn8       2.38635      .   S
    C227   H63       1.09166      .   S
    C227   C233      1.38825      .   S
    C226   H62       1.09169      .   S
    C226   C232      1.38823      .   S
    C301   O379      1.27689      .   S
    C300   O378      1.27693      .   S
    Zn4    O370      2.22724      .   S
    Zn4    O381      2.17434      .   S
    Zn4    N354      2.08259      .   S
    Zn4    N344      2.11955  1_565   S
    Zn5    O371      2.22713      .   S
    Zn5    O380      2.17422  1_655   S
    Zn5    N355      2.08140      .   S
    Zn5    N345      2.11930  1_565   S
    H161   N353      1.03265      .   S
    C305   H169      1.09931      .   S
    C305   C307      1.53027      .   S
    H160   N352      1.03263      .   S
    C304   H168      1.09935      .   S
    C304   C306      1.52996      .   S
    N343   C233      1.35458      .   S
    N343   Zn11      2.08251      .   S
    N342   C232      1.35453      .   S
    N342   Zn10      2.08291      .   S
    O366   C234      1.27701      .   S
    O367   C235      1.27700      .   S
    C233   H69       1.08813      .   S
    C232   H68       1.08811      .   S
    O371   C257      1.27669  1_565   S
    O370   C256      1.27646  1_565   S
    C323   O381      1.26564      .   S
    C323   O383      1.27674  1_565   S
    C322   O380      1.26564      .   S
    C322   O382      1.27673  1_565   S
    N341   H71       1.03265      .   S
    N341   C221      1.48811      .   S
    N340   H70       1.03267      .   S
    N340   C220      1.48804      .   S
    H158   C299      1.08808  1_455   S
    H159   C298      1.08813      .   S
    O369   C257      1.26569      .   S
    O369   Zn11      2.17430      .   S
    O368   C256      1.26564      .   S
    O368   Zn10      2.17414      .   S
    N353   Zn9       2.12020      .   S
    N353   C289      1.49100      .   S
    N352   Zn8       2.12000      .   S
    N352   C288      1.49170      .   S
    C257   C243      1.54196      .   S
    C256   C242      1.54199      .   S
    O383   Zn11      2.22701      .   S
    O382   Zn10      2.22702      .   S
    C299   N355      1.35500      .   S
    C299   C293      1.38827      .   S
    C298   N354      1.35458      .   S
    C298   C292      1.38819      .   S
    O379   Zn9       2.22790      .   S
    O378   Zn8       2.22796      .   S
    H79    C239      1.09933      .   S
    H78    C238      1.09935      .   S
    N355   C297      1.35062      .   S
    N354   C296      1.35008      .   S
    C238   C242      1.54346      .   S
    C238   C236      1.53026      .   S
    C239   C243      1.54343      .   S
    C239   C237      1.53030      .   S
    Zn11   Br335     2.38672      .   S
    Zn10   Br334     2.38655      .   S
    H57    C221      1.10296      .   S
    H56    C220      1.10302      .   S
    C235   C221      1.54188      .   S
    C235   O364      1.26558      .   S
    C234   C220      1.54182      .   S
    C234   O365      1.22266  1_455   S
    H153   C293      1.09168      .   S
    H152   C292      1.09165      .   S
    C293   C291      1.40056      .   S
    C292   C290      1.40054      .   S
    C221   C217      1.54231      .   S
    C220   C216      1.54348      .   S
    C296   H156      1.08756      .   S
    C296   C294      1.39078      .   S
    C297   H157      1.08756      .   S
    C297   C295      1.39076      .   S
    Zn9    O365      2.16148      .   S
    Zn9    N339      2.08344      .   S
    Zn8    O364      2.17358      .   S
    Zn8    N338      2.08310      .   S
    H100   N344      1.03266      .   S
    H101   N345      1.03272      .   S
    H76    C236      1.09938      .   S
    H77    C237      1.09834      .   S
    C242   N344      1.48815      .   S
    C242   H86       1.10297      .   S
    C243   N345      1.48817      .   S
    C243   H87       1.10301      .   S
    N344   C244      1.49163      .   S
    N345   C245      1.49154      .   S
    C291   C295      1.39942      .   S
    C291   C289      1.50897      .   S
    C290   C294      1.39937      .   S
    C290   C288      1.51010      .   S
    C307   H175      1.09977      .   S
    C307   H171      1.09855      .   S
    C307   H173      1.09813      .   S
    C306   H174      1.09961      .   S
    C306   H170      1.09883      .   S
    C306   H172      1.09824      .   S
    C294   H154      1.09029      .   S
    C295   H155      1.09035      .   S
    C236   H73       1.10003      .   S
    C236   H74       1.09946      .   S
    C237   H72       1.09990  1_655   S
    C237   H75       1.09953      .   S
    C289   H151      1.09955      .   S
    C289   H149      1.10017      .   S
    C288   H150      1.09876      .   S
    C288   H148      1.09910      .   S
    H43    C215      1.10002      .   S
    H42    C214      1.09995      .   S
    H45    C215      1.09949      .   S
    H44    C214      1.09950      .   S
    C217   C215      1.53086      .   S
    C217   H49       1.09995      .   S
    C217   C219      1.53014      .   S
    C216   C214      1.53021      .   S
    C216   H48       1.09928      .   S
    C216   C218      1.53035      .   S
    H88    C244      1.09913      .   S
    H89    C245      1.09914      .   S
    H55    C219      1.09968      .   S
    H54    C218      1.09896      .   S
    C244   H90       1.09878      .   S
    C244   C246      1.51009      .   S
    C245   H91       1.09885      .   S
    C245   C247      1.51006      .   S
    C215   H47       1.09838      .   S
    C214   H46       1.09847      .   S
    H36    C208      1.08758      .   S
    H37    C209      1.08694      .   S
    H53    C219      1.09813      .   S
    H52    C218      1.09758      .   S
    N339   C209      1.34991      .   S
    N339   C211      1.35346      .   S
    N338   C208      1.35012      .   S
    N338   C210      1.35460      .   S
    C219   H51       1.09853      .   S
    C218   H50       1.09965      .   S
    H93    C249      1.09163      .   S
    H92    C248      1.09165      .   S
    H39    C211      1.08771      .   S
    H38    C210      1.08813      .   S
    C209   C207      1.39151      .   S
    C208   C206      1.39074      .   S
    C246   C249      1.40062      .   S
    C246   C250      1.39940      .   S
    C247   C248      1.40050  1_655   S
    C247   C251      1.39935      .   S
    C249   C255      1.38832      .   S
    C248   C254      1.38833      .   S
    H17    C193      1.09837      .   S
    H16    C192      1.09839      .   S
    C211   C205      1.38976      .   S
    C210   C204      1.38840      .   S
    H15    C193      1.09950      .   S
    H14    C192      1.09950      .   S
    C193   H13       1.09999      .   S
    C193   C195      1.53029      .   S
    C192   H12       1.10000      .   S
    C192   C194      1.53032      .   S
    C251   H95       1.09022      .   S
    C251   C253      1.39076      .   S
    C250   H94       1.09027      .   S
    C250   C252      1.39082      .   S
    C255   H99       1.08814      .   S
    C255   N347      1.35456      .   S
    C254   H98       1.08814      .   S
    C254   N346      1.35463      .   S
    C206   H34       1.09028      .   S
    C206   C202      1.39926      .   S
    C207   H35       1.09030      .   S
    C207   C203      1.39938      .   S
    H18    C194      1.09954      .   S
    H19    C195      1.09933      .   S
    C205   C203      1.40055      .   S
    C205   H33       1.09159      .   S
    C204   C202      1.40053      .   S
    C204   H32       1.09167      .   S
    C195   C197      1.53024      .   S
    C195   C199      1.54340      .   S
    C194   C196      1.53022      .   S
    C194   C198      1.54337      .   S
    C252   N347      1.35009      .   S
    C252   H96       1.08754      .   S
    C253   N346      1.34997  1_655   S
    C253   H97       1.08756      .   S
    N347   Zn7       2.08301      .   S
    N346   Zn6       2.08278      .   S
    C203   C201      1.50996      .   S
    C202   C200      1.50996      .   S
    H21    C197      1.09850      .   S
    H20    C196      1.09849      .   S
    H27    C199      1.10310      .   S
    H26    C198      1.10310      .   S
    Br331  Zn7       2.38626      .   S
    Br330  Zn6       2.38644      .   S
    C197   H25       1.09966      .   S
    C197   H23       1.09819      .   S
    C196   H24       1.09970      .   S
    C196   H22       1.09816      .   S
    C199   N337      1.48816      .   S
    C199   C213      1.54190      .   S
    C198   N336      1.48816      .   S
    C198   C212      1.54192      .   S
    O361   Zn7       2.17453      .   S
    O361   C213      1.26566      .   S
    O360   Zn6       2.17439      .   S
    O360   C212      1.26565      .   S
    Zn7    O374      2.22773      .   S
    Zn6    O375      2.22751  1_455   S
    H40    N336      1.03267      .   S
    H41    N337      1.03268      .   S
    C201   N337      1.49170      .   S
    C201   H31       1.09880      .   S
    C201   H29       1.09913      .   S
    C200   N336      1.49165      .   S
    C200   H30       1.09880      .   S
    C200   H28       1.09889      .   S
