# CIF file generated by openbabel 2.4.90, see http://openbabel.sf.net
data_I
_chemical_name_common 'VESTA_phase_1'
_cell_length_a 20.365
_cell_length_b 17.894
_cell_length_c 19.845
_cell_angle_alpha 90.021
_cell_angle_beta 90.013
_cell_angle_gamma 89.977
_space_group_name_H-M_alt 'P 1'
_space_group_name_Hall 'P 1'
loop_
    _symmetry_equiv_pos_as_xyz
    x,y,z
loop_
    _atom_site_label
    _atom_site_type_symbol
    _atom_site_fract_x
    _atom_site_fract_y
    _atom_site_fract_z
    _atom_site_occupancy
    La0     La   0.48324   0.75001   0.74997   1.000
    La1     La   0.98303   0.74962   0.75011   1.000
    La2     La   0.26649   0.25070   0.24997   1.000
    La3     La   0.76700   0.25000   0.24995   1.000
    La4     La   0.01690   0.24991   0.25006   1.000
    La5     La   0.51703   0.25038   0.25001   1.000
    La6     La   0.23414   0.74978   0.75075   1.000
    La7     La   0.73314   0.74998   0.74999   1.000
    H8      H    0.06366   0.94767   0.68700   1.000
    H9      H    0.56360   0.94781   0.68790   1.000
    H10     H    0.18604   0.85953   0.54028   1.000
    H11     H    0.68573   0.86000   0.53832   1.000
    H12     H    0.39498   0.93966   0.51042   1.000
    H13     H    0.89513   0.93921   0.51016   1.000
    H14     H    0.08726   0.01268   0.58059   1.000
    H15     H    0.58725   0.01280   0.58078   1.000
    H16     H    0.00293   0.74392   0.56570   1.000
    H17     H    0.50252   0.74511   0.56575   1.000
    H18     H    0.15446   0.89306   0.42240   1.000
    H19     H    0.65345   0.89278   0.42047   1.000
    H20     H    0.37996   0.87885   0.62126   1.000
    H21     H    0.88016   0.87838   0.62100   1.000
    H22     H    0.04715   0.85082   0.37637   1.000
    H23     H    0.54582   0.85032   0.37530   1.000
    H24     H    0.47044   0.77537   0.44788   1.000
    H25     H    0.97147   0.77514   0.44793   1.000
    H26     H    0.06352   0.55210   0.81260   1.000
    H27     H    0.56348   0.55192   0.81180   1.000
    H28     H    0.18610   0.64075   0.96187   1.000
    H29     H    0.68586   0.63979   0.96158   1.000
    H30     H    0.39506   0.56051   0.98941   1.000
    H31     H    0.89480   0.56014   0.98996   1.000
    H32     H    0.08724   0.48729   0.91985   1.000
    H33     H    0.58721   0.48700   0.91896   1.000
    H34     H    0.00233   0.75463   0.93430   1.000
    H35     H    0.50267   0.75493   0.93430   1.000
    H36     H    0.15398   0.60785   0.07972   1.000
    H37     H    0.65365   0.60693   0.07940   1.000
    H38     H    0.37996   0.62124   0.87852   1.000
    H39     H    0.87974   0.62085   0.87906   1.000
    H40     H    0.04609   0.64964   0.12472   1.000
    H41     H    0.54606   0.64947   0.12459   1.000
    H42     H    0.47066   0.72461   0.05216   1.000
    H43     H    0.97038   0.72417   0.05214   1.000
    H44     H    0.18684   0.05246   0.18792   1.000
    H45     H    0.68648   0.05210   0.18786   1.000
    H46     H    0.06430   0.14017   0.03790   1.000
    H47     H    0.56430   0.14026   0.03812   1.000
    H48     H    0.35636   0.06103   0.00000   1.000
    H49     H    0.85506   0.06012   0.00000   1.000
    H50     H    0.16378   0.98763   0.08053   1.000
    H51     H    0.66275   0.98716   0.08068   1.000
    H52     H    0.24754   0.25484   0.06602   1.000
    H53     H    0.74763   0.25486   0.06591   1.000
    H54     H    0.09692   0.10728   0.92017   1.000
    H55     H    0.59663   0.10753   0.92026   1.000
    H56     H    0.37078   0.12166   0.12248   1.000
    H57     H    0.87013   0.12093   0.12129   1.000
    H58     H    0.20477   0.14949   0.87550   1.000
    H59     H    0.70437   0.14982   0.87536   1.000
    H60     H    0.27998   0.22442   0.94831   1.000
    H61     H    0.77977   0.22461   0.94800   1.000
    H62     H    0.18410   0.44855   0.31360   1.000
    H63     H    0.68658   0.44817   0.31197   1.000
    H64     H    0.06385   0.35941   0.46209   1.000
    H65     H    0.56492   0.36035   0.46184   1.000
    H66     H    0.35530   0.44057   0.48850   1.000
    H67     H    0.85505   0.43966   0.48960   1.000
    H68     H    0.16174   0.51306   0.42132   1.000
    H69     H    0.66290   0.51318   0.41913   1.000
    H70     H    0.24768   0.24580   0.43409   1.000
    H71     H    0.74780   0.24470   0.43400   1.000
    H72     H    0.09621   0.39234   0.57988   1.000
    H73     H    0.59750   0.39299   0.57960   1.000
    H74     H    0.36899   0.38027   0.37720   1.000
    H75     H    0.87010   0.37883   0.37872   1.000
    H76     H    0.20424   0.35070   0.62465   1.000
    H77     H    0.70512   0.35013   0.62450   1.000
    H78     H    0.27988   0.27629   0.55187   1.000
    H79     H    0.78018   0.27486   0.55179   1.000
    H80     H    0.43595   0.05283   0.31256   1.000
    H81     H    0.93653   0.05192   0.31202   1.000
    H82     H    0.31469   0.14175   0.46130   1.000
    H83     H    0.81448   0.13978   0.46164   1.000
    H84     H    0.10496   0.06025   0.48965   1.000
    H85     H    0.60506   0.06011   0.48900   1.000
    H86     H    0.41241   0.98775   0.41966   1.000
    H87     H    0.91286   0.98684   0.41910   1.000
    H88     H    0.49808   0.25630   0.43405   1.000
    H89     H    0.99757   0.25488   0.43416   1.000
    H90     H    0.34732   0.10783   0.57883   1.000
    H91     H    0.84684   0.10701   0.57940   1.000
    H92     H    0.12000   0.12114   0.37886   1.000
    H93     H    0.61993   0.12108   0.37880   1.000
    H94     H    0.45523   0.14949   0.62381   1.000
    H95     H    0.95444   0.14959   0.62454   1.000
    H96     H    0.02970   0.22464   0.55200   1.000
    H97     H    0.53053   0.22486   0.55155   1.000
    H98     H    0.43670   0.44851   0.18770   1.000
    H99     H    0.93645   0.44781   0.18826   1.000
    H100    H    0.31427   0.36002   0.03842   1.000
    H101    H    0.81436   0.35983   0.03813   1.000
    H102    H    0.10508   0.44001   0.00000   1.000
    H103    H    0.60495   0.43938   0.00000   1.000
    H104    H    0.41299   0.51339   0.08055   1.000
    H105    H    0.91268   0.51280   0.08114   1.000
    H106    H    0.49752   0.24500   0.06577   1.000
    H107    H    0.99771   0.24515   0.06590   1.000
    H108    H    0.34647   0.39281   0.92056   1.000
    H109    H    0.84679   0.39260   0.92034   1.000
    H110    H    0.12019   0.37914   0.12168   1.000
    H111    H    0.62003   0.37870   0.12088   1.000
    H112    H    0.45408   0.35030   0.87542   1.000
    H113    H    0.95458   0.35029   0.87549   1.000
    H114    H    0.02992   0.27544   0.94819   1.000
    H115    H    0.52951   0.27525   0.94790   1.000
    H116    H    0.31608   0.94814   0.81298   1.000
    H117    H    0.81350   0.94788   0.81209   1.000
    H118    H    0.43652   0.85994   0.96210   1.000
    H119    H    0.93572   0.85962   0.96200   1.000
    H120    H    0.14638   0.94059   0.98934   1.000
    H121    H    0.64498   0.93962   0.98960   1.000
    H122    H    0.33916   0.01333   0.92022   1.000
    H123    H    0.83722   0.01276   0.91931   1.000
    H124    H    0.25324   0.74511   0.93479   1.000
    H125    H    0.75239   0.74508   0.93407   1.000
    H126    H    0.40424   0.89307   0.07992   1.000
    H127    H    0.90336   0.89226   0.07986   1.000
    H128    H    0.13197   0.87959   0.87846   1.000
    H129    H    0.62990   0.87889   0.87868   1.000
    H130    H    0.29653   0.85094   0.12498   1.000
    H131    H    0.79561   0.84996   0.12471   1.000
    H132    H    0.22112   0.77584   0.05254   1.000
    H133    H    0.72022   0.77523   0.05193   1.000
    H134    H    0.31609   0.55186   0.68700   1.000
    H135    H    0.81354   0.55202   0.68788   1.000
    H136    H    0.43594   0.64068   0.53778   1.000
    H137    H    0.93562   0.64020   0.53804   1.000
    H138    H    0.14490   0.55961   0.51287   1.000
    H139    H    0.64506   0.56055   0.51026   1.000
    H140    H    0.33852   0.48733   0.58009   1.000
    H141    H    0.83728   0.48719   0.58065   1.000
    H142    H    0.25224   0.75435   0.56636   1.000
    H143    H    0.75236   0.75505   0.56587   1.000
    H144    H    0.40324   0.60780   0.42006   1.000
    H145    H    0.90328   0.60768   0.42014   1.000
    H146    H    0.13117   0.61997   0.62415   1.000
    H147    H    0.62995   0.62121   0.62120   1.000
    H148    H    0.29508   0.64947   0.37565   1.000
    H149    H    0.79557   0.65020   0.37523   1.000
    H150    H    0.21966   0.72390   0.44867   1.000
    H151    H    0.72020   0.72502   0.44798   1.000
    C152    C    0.09682   0.79883   0.55972   1.000
    C153    C    0.59648   0.79975   0.55875   1.000
    C154    C    0.02899   0.94899   0.64608   1.000
    C155    C    0.52891   0.94922   0.64631   1.000
    C156    C    0.13945   0.84100   0.51914   1.000
    C157    C    0.63896   0.84146   0.51761   1.000
    C158    C    0.49392   0.98280   0.53201   1.000
    C159    C    0.99402   0.98248   0.53177   1.000
    C160    C    0.43438   0.94380   0.54726   1.000
    C161    C    0.93453   0.94338   0.54700   1.000
    C162    C    0.04044   0.98403   0.58588   1.000
    C163    C    0.54039   0.98423   0.58609   1.000
    C164    C    0.03626   0.77543   0.53362   1.000
    C165    C    0.53571   0.77630   0.53320   1.000
    C166    C    0.12168   0.85938   0.45344   1.000
    C167    C    0.62081   0.85939   0.45193   1.000
    C168    C    0.42418   0.90947   0.60804   1.000
    C169    C    0.92436   0.90904   0.60778   1.000
    C170    C    0.06131   0.83556   0.42755   1.000
    C171    C    0.56025   0.83547   0.42650   1.000
    C172    C    0.01877   0.79348   0.46763   1.000
    C173    C    0.51788   0.79381   0.46718   1.000
    C174    C    0.11559   0.78004   0.63040   1.000
    C175    C    0.61574   0.78143   0.62947   1.000
    C176    C    0.09655   0.70047   0.94136   1.000
    C177    C    0.59660   0.70015   0.94120   1.000
    C178    C    0.02882   0.55071   0.85423   1.000
    C179    C    0.52884   0.55062   0.85344   1.000
    C180    C    0.13923   0.65903   0.98255   1.000
    C181    C    0.63910   0.65835   0.98230   1.000
    C182    C    0.49398   0.51727   0.96780   1.000
    C183    C    0.99388   0.51724   0.96852   1.000
    C184    C    0.43444   0.55633   0.95257   1.000
    C185    C    0.93426   0.55610   0.95319   1.000
    C186    C    0.04035   0.51578   0.91448   1.000
    C187    C    0.54038   0.51565   0.91367   1.000
    C188    C    0.03566   0.72359   0.96680   1.000
    C189    C    0.53586   0.72364   0.96681   1.000
    C190    C    0.12116   0.64102   0.04823   1.000
    C191    C    0.62100   0.64039   0.04800   1.000
    C192    C    0.42419   0.59059   0.89176   1.000
    C193    C    0.92403   0.59035   0.89230   1.000
    C194    C    0.06047   0.66457   0.07353   1.000
    C195    C    0.56046   0.66435   0.07300   1.000
    C196    C    0.01790   0.70600   0.03288   1.000
    C197    C    0.51808   0.70612   0.03283   1.000
    C198    C    0.11573   0.71880   0.87063   1.000
    C199    C    0.61580   0.71850   0.87051   1.000
    C200    C    0.15355   0.20029   0.05869   1.000
    C201    C    0.65362   0.20034   0.05875   1.000
    C202    C    0.22174   0.05115   0.14651   1.000
    C203    C    0.72115   0.05069   0.14626   1.000
    C204    C    0.11116   0.15862   0.01730   1.000
    C205    C    0.61112   0.15873   0.01750   1.000
    C206    C    0.25731   0.01784   0.03235   1.000
    C207    C    0.75607   0.01713   0.03190   1.000
    C208    C    0.31676   0.05682   0.04801   1.000
    C209    C    0.81564   0.05607   0.04721   1.000
    C210    C    0.21058   0.01623   0.08617   1.000
    C211    C    0.70962   0.01570   0.08601   1.000
    C212    C    0.21442   0.22365   0.03337   1.000
    C213    C    0.71442   0.22372   0.03330   1.000
    C214    C    0.12950   0.14063   0.95176   1.000
    C215    C    0.62929   0.14083   0.95180   1.000
    C216    C    0.32664   0.09104   0.10893   1.000
    C217    C    0.82588   0.09037   0.10803   1.000
    C218    C    0.19018   0.16441   0.92664   1.000
    C219    C    0.68990   0.16466   0.92655   1.000
    C220    C    0.23245   0.20607   0.96740   1.000
    C221    C    0.73229   0.20623   0.96728   1.000
    C222    C    0.13415   0.21865   0.12936   1.000
    C223    C    0.63433   0.21864   0.12948   1.000
    C224    C    0.15339   0.29973   0.44138   1.000
    C225    C    0.65399   0.29972   0.44119   1.000
    C226    C    0.21937   0.44997   0.35469   1.000
    C227    C    0.72124   0.44949   0.35361   1.000
    C228    C    0.11078   0.34117   0.48266   1.000
    C229    C    0.61168   0.34161   0.48244   1.000
    C230    C    0.25579   0.48310   0.46862   1.000
    C231    C    0.75614   0.48293   0.46798   1.000
    C232    C    0.31532   0.44456   0.45231   1.000
    C233    C    0.81566   0.44384   0.45275   1.000
    C234    C    0.20860   0.48468   0.41521   1.000
    C235    C    0.70973   0.48451   0.41380   1.000
    C236    C    0.21436   0.27672   0.46675   1.000
    C237    C    0.71474   0.27603   0.46661   1.000
    C238    C    0.12898   0.35920   0.54831   1.000
    C239    C    0.63000   0.35947   0.54810   1.000
    C240    C    0.32481   0.41056   0.39124   1.000
    C241    C    0.82589   0.40952   0.39194   1.000
    C242    C    0.18976   0.33573   0.57349   1.000
    C243    C    0.69055   0.33532   0.57333   1.000
    C244    C    0.23227   0.29436   0.53273   1.000
    C245    C    0.73274   0.29349   0.53260   1.000
    C246    C    0.13410   0.28130   0.37068   1.000
    C247    C    0.63457   0.28146   0.37040   1.000
    C248    C    0.40401   0.20193   0.44100   1.000
    C249    C    0.90366   0.20014   0.44119   1.000
    C250    C    0.47075   0.05123   0.35406   1.000
    C251    C    0.97118   0.05055   0.35365   1.000
    C252    C    0.36157   0.15998   0.48201   1.000
    C253    C    0.86124   0.15836   0.48233   1.000
    C254    C    0.00608   0.01700   0.46797   1.000
    C255    C    0.50594   0.01737   0.46822   1.000
    C256    C    0.06559   0.05609   0.45279   1.000
    C257    C    0.56554   0.05620   0.45287   1.000
    C258    C    0.45934   0.01614   0.41425   1.000
    C259    C    0.95968   0.01549   0.41384   1.000
    C260    C    0.46493   0.22494   0.46650   1.000
    C261    C    0.96442   0.22364   0.46671   1.000
    C262    C    0.37993   0.14139   0.54749   1.000
    C263    C    0.87943   0.14044   0.54800   1.000
    C264    C    0.07579   0.09046   0.39204   1.000
    C265    C    0.57567   0.09058   0.39210   1.000
    C266    C    0.44064   0.16487   0.57279   1.000
    C267    C    0.93998   0.16442   0.57335   1.000
    C268    C    0.48297   0.20675   0.53231   1.000
    C269    C    0.98229   0.20615   0.53272   1.000
    C270    C    0.38456   0.22094   0.37049   1.000
    C271    C    0.88436   0.21852   0.37049   1.000
    C272    C    0.40355   0.29972   0.05881   1.000
    C273    C    0.90368   0.29971   0.05878   1.000
    C274    C    0.47130   0.44967   0.14606   1.000
    C275    C    0.97112   0.44925   0.14660   1.000
    C276    C    0.36103   0.34147   0.01769   1.000
    C277    C    0.86120   0.34135   0.01753   1.000
    C278    C    0.00600   0.48285   0.03237   1.000
    C279    C    0.50612   0.48286   0.03165   1.000
    C280    C    0.06563   0.44399   0.04764   1.000
    C281    C    0.56561   0.44370   0.04686   1.000
    C282    C    0.45977   0.48462   0.08581   1.000
    C283    C    0.95957   0.48427   0.08645   1.000
    C284    C    0.46430   0.27623   0.03324   1.000
    C285    C    0.96453   0.27633   0.03330   1.000
    C286    C    0.37913   0.35939   0.95200   1.000
    C287    C    0.87943   0.35927   0.95188   1.000
    C288    C    0.07589   0.40965   0.10841   1.000
    C289    C    0.57585   0.40945   0.10768   1.000
    C290    C    0.43968   0.33544   0.92662   1.000
    C291    C    0.94008   0.33544   0.92666   1.000
    C292    C    0.48208   0.29372   0.96721   1.000
    C293    C    0.98244   0.29383   0.96738   1.000
    C294    C    0.38436   0.28144   0.12955   1.000
    C295    C    0.88436   0.28139   0.12947   1.000
    C296    C    0.34725   0.79968   0.94176   1.000
    C297    C    0.84640   0.79958   0.94130   1.000
    C298    C    0.28115   0.94970   0.85435   1.000
    C299    C    0.77884   0.94924   0.85371   1.000
    C300    C    0.38974   0.84149   0.98285   1.000
    C301    C    0.88890   0.84114   0.98259   1.000
    C302    C    0.24556   0.98339   0.96842   1.000
    C303    C    0.74393   0.98270   0.96806   1.000
    C304    C    0.18604   0.94452   0.95280   1.000
    C305    C    0.68438   0.94373   0.95278   1.000
    C306    C    0.29231   0.98479   0.91462   1.000
    C307    C    0.79037   0.98419   0.91397   1.000
    C308    C    0.28645   0.77638   0.96730   1.000
    C309    C    0.78559   0.77619   0.96670   1.000
    C310    C    0.37159   0.85962   0.04849   1.000
    C311    C    0.87070   0.85900   0.04829   1.000
    C312    C    0.17616   0.91014   0.89197   1.000
    C313    C    0.67414   0.90948   0.89190   1.000
    C314    C    0.31099   0.83588   0.07384   1.000
    C315    C    0.81008   0.83516   0.07350   1.000
    C316    C    0.26860   0.79413   0.03326   1.000
    C317    C    0.76771   0.79363   0.03274   1.000
    C318    C    0.36645   0.78112   0.87108   1.000
    C319    C    0.86569   0.78136   0.87056   1.000
    C320    C    0.34645   0.70032   0.55878   1.000
    C321    C    0.84635   0.70041   0.55869   1.000
    C322    C    0.28083   0.55038   0.64670   1.000
    C323    C    0.77888   0.55071   0.64624   1.000
    C324    C    0.38896   0.65892   0.51730   1.000
    C325    C    0.88883   0.65880   0.51741   1.000
    C326    C    0.24443   0.51715   0.53278   1.000
    C327    C    0.74401   0.51735   0.53185   1.000
    C328    C    0.18488   0.55566   0.54907   1.000
    C329    C    0.68445   0.55637   0.54710   1.000
    C330    C    0.29163   0.51564   0.58600   1.000
    C331    C    0.79043   0.51578   0.58597   1.000
    C332    C    0.28542   0.72337   0.53360   1.000
    C333    C    0.78555   0.72391   0.53324   1.000
    C334    C    0.37056   0.64093   0.45175   1.000
    C335    C    0.87064   0.64100   0.45170   1.000
    C336    C    0.17536   0.58968   0.61012   1.000
    C337    C    0.67420   0.59060   0.60795   1.000
    C338    C    0.30971   0.66442   0.42677   1.000
    C339    C    0.81004   0.66495   0.42640   1.000
    C340    C    0.26732   0.70578   0.46767   1.000
    C341    C    0.76768   0.70654   0.46719   1.000
    C342    C    0.36592   0.71870   0.62944   1.000
    C343    C    0.86564   0.71859   0.62945   1.000
    N344    N    0.47147   0.91095   0.65736   1.000
    N345    N    0.97163   0.91062   0.65713   1.000
    N346    N    0.47144   0.58902   0.84242   1.000
    N347    N    0.97135   0.58887   0.84309   1.000
    N348    N    0.27908   0.08947   0.15796   1.000
    N349    N    0.77859   0.08895   0.15734   1.000
    N350    N    0.27676   0.41193   0.34267   1.000
    N351    N    0.77863   0.41107   0.34259   1.000
    N352    N    0.02856   0.08891   0.34265   1.000
    N353    N    0.52824   0.08934   0.34291   1.000
    N354    N    0.02859   0.41104   0.15771   1.000
    N355    N    0.52864   0.41116   0.15706   1.000
    N356    N    0.22378   0.91141   0.84299   1.000
    N357    N    0.72141   0.91096   0.84260   1.000
    N358    N    0.22340   0.58836   0.65868   1.000
    N359    N    0.72145   0.58904   0.65730   1.000
    O360    O    0.46152   0.87516   0.71632   1.000
    O361    O    0.96179   0.87477   0.71606   1.000
    O362    O    0.07251   0.75041   0.66920   1.000
    O363    O    0.57269   0.75317   0.66900   1.000
    O364    O    0.17425   0.79326   0.64932   1.000
    O365    O    0.67482   0.79371   0.64741   1.000
    O366    O    0.46147   0.62483   0.78347   1.000
    O367    O    0.96144   0.62466   0.78412   1.000
    O368    O    0.07260   0.74697   0.83104   1.000
    O369    O    0.57271   0.74677   0.83093   1.000
    O370    O    0.17482   0.70654   0.85269   1.000
    O371    O    0.67489   0.70625   0.85250   1.000
    O372    O    0.28864   0.12523   0.21702   1.000
    O373    O    0.78855   0.12479   0.21630   1.000
    O374    O    0.17716   0.24696   0.16900   1.000
    O375    O    0.67740   0.24685   0.16911   1.000
    O376    O    0.07512   0.20621   0.14730   1.000
    O377    O    0.57527   0.20630   0.14741   1.000
    O378    O    0.28588   0.37619   0.28350   1.000
    O379    O    0.78855   0.37518   0.28365   1.000
    O380    O    0.17712   0.25294   0.33109   1.000
    O381    O    0.67752   0.25308   0.33082   1.000
    O382    O    0.07505   0.29375   0.35268   1.000
    O383    O    0.57548   0.29387   0.35262   1.000
    O384    O    0.03848   0.12479   0.28374   1.000
    O385    O    0.53809   0.12519   0.28397   1.000
    O386    O    0.42750   0.24955   0.33098   1.000
    O387    O    0.92738   0.24680   0.33089   1.000
    O388    O    0.32541   0.20893   0.35264   1.000
    O389    O    0.82527   0.20624   0.35256   1.000
    O390    O    0.03856   0.37513   0.21660   1.000
    O391    O    0.53856   0.37536   0.21602   1.000
    O392    O    0.42744   0.25313   0.16910   1.000
    O393    O    0.92740   0.25317   0.16910   1.000
    O394    O    0.32528   0.29375   0.14751   1.000
    O395    O    0.82526   0.29371   0.14735   1.000
    O396    O    0.21421   0.87537   0.78409   1.000
    O397    O    0.71145   0.87517   0.78364   1.000
    O398    O    0.32348   0.75223   0.83175   1.000
    O399    O    0.82265   0.75313   0.83090   1.000
    O400    O    0.42531   0.79396   0.85277   1.000
    O401    O    0.92477   0.79368   0.85266   1.000
    O402    O    0.21421   0.62414   0.71777   1.000
    O403    O    0.71148   0.62480   0.71630   1.000
    O404    O    0.32297   0.74705   0.66912   1.000
    O405    O    0.82259   0.74683   0.66909   1.000
    O406    O    0.42500   0.70623   0.64731   1.000
    O407    O    0.92470   0.70617   0.64739   1.000
loop_
    _geom_bond_atom_site_label_1
    _geom_bond_atom_site_label_2
    _geom_bond_distance
    _geom_bond_site_symmetry_2
    _ccdc_geom_bond_type
    H48    C208      1.25066      .   S
    H103   C281      1.23000      .   S
    H102   C280      1.24279      .   S
    H49    C209      1.23610      .   S
    C204   H46       1.08968      .   S
    C204   C200      1.40567      .   S
    C204   C214      1.39093  1_554   S
    C205   H47       1.08906      .   S
    C205   C201      1.40471      .   S
    C205   C215      1.39260  1_554   S
    C277   H101      1.08911      .   S
    C277   C273      1.40479      .   S
    C277   C287      1.39235  1_554   S
    C276   H100      1.08911      .   S
    C276   C272      1.40469      .   S
    C276   C286      1.39238  1_554   S
    C279   C281      1.43159      .   S
    C279   C282      1.43096      .   S
    C279   C182      1.43035  1_554   S
    C207   C209      1.43175      .   S
    C207   C211      1.43141      .   S
    C207   C303      1.43007  1_544   S
    C206   C208      1.43159      .   S
    C206   C210      1.43096      .   S
    C206   C302      1.43048  1_544   S
    C278   C280      1.43159      .   S
    C278   C283      1.43076  1_455   S
    C278   C183      1.43021  1_454   S
    C317   H133      1.09042      .   S
    C317   C315      1.39687      .   S
    C317   C309      1.39549  1_554   S
    C197   H42       1.09037      .   S
    C197   C195      1.39238      .   S
    C197   C189      1.39523  1_554   S
    C196   H43       1.08999  1_455   S
    C196   C194      1.39686      .   S
    C196   C188      1.39650  1_554   S
    C284   C272      1.40159      .   S
    C284   H106      1.08927      .   S
    C284   C292      1.39526  1_554   S
    C316   H132      1.09042      .   S
    C316   C314      1.39699      .   S
    C316   C308      1.39513  1_554   S
    C213   C201      1.40161      .   S
    C213   H53       1.08922      .   S
    C213   C221      1.39518  1_554   S
    C285   C273      1.40205      .   S
    C285   H107      1.08908      .   S
    C285   C293      1.39397  1_554   S
    C212   C200      1.40164      .   S
    C212   H52       1.08919      .   S
    C212   C220      1.39554  1_554   S
    C281   C289      1.36970      .   S
    C209   C217      1.36979      .   S
    C280   C288      1.36962      .   S
    C191   C195      1.39625      .   S
    C191   H37       1.09028      .   S
    C191   C181      1.39275  1_554   S
    C208   C216      1.36978      .   S
    C190   C194      1.39906      .   S
    C190   H36       1.09049      .   S
    C190   C180      1.39237  1_554   S
    C311   C315      1.39902      .   S
    C311   H127      1.09044      .   S
    C311   C301      1.39253  1_554   S
    C310   C314      1.39912      .   S
    C310   H126      1.09055      .   S
    C310   C300      1.39234  1_554   S
    C200   C222      1.49354      .   S
    C201   C223      1.49380      .   S
    C273   C295      1.49366      .   S
    C272   C294      1.49371      .   S
    C195   H41       1.09794      .   S
    C315   H131      1.09072      .   S
    C194   H40       1.09066      .   S
    C314   H130      1.09045      .   S
    H50    C210      1.08777  1_565   S
    H104   C282      1.08765      .   S
    H51    C211      1.08783  1_565   S
    H105   C283      1.08765      .   S
    C282   C274      1.36969      .   S
    C211   C203      1.36973      .   S
    C210   C202      1.36942      .   S
    C283   C275      1.36867      .   S
    C289   H111      1.08656      .   S
    C289   N355      1.37332      .   S
    C217   H57       1.08660      .   S
    C217   N349      1.37331      .   S
    C288   H110      1.08662      .   S
    C288   N354      1.37334      .   S
    C216   H56       1.08657      .   S
    C216   N348      1.37336      .   S
    C222   O376      1.27371      .   S
    C222   O374      1.28155      .   S
    C295   O395      1.27391      .   S
    C295   O393      1.28123      .   S
    C223   O377      1.27384      .   S
    C223   O375      1.28156      .   S
    C294   O394      1.27398      .   S
    C294   O392      1.28151      .   S
    C274   N355      1.37319      .   S
    C274   H98       1.08630      .   S
    C203   N349      1.37323      .   S
    C203   H45       1.08677      .   S
    C202   N348      1.37324      .   S
    C202   H44       1.08682      .   S
    C275   N354      1.37304  1_655   S
    C275   H99       1.08766      .   S
    O376   La4       2.48493      .   S
    O395   La3       2.48354      .   S
    O377   La5       2.48470      .   S
    O394   La2       2.48278      .   S
    N355   O391      1.34931      .   S
    N349   O373      1.34940      .   S
    N354   O390      1.34913      .   S
    N348   O372      1.34926      .   S
    O374   La2       2.42786      .   S
    O393   La4       2.43002  1_655   S
    O392   La5       2.43058      .   S
    O375   La3       2.43001      .   S
    O391   La5       2.37699      .   S
    O373   La3       2.37853      .   S
    O390   La4       2.37877      .   S
    O372   La2       2.38107      .   S
    La3    O379      2.37838      .   S
    La3    O381      2.42905      .   S
    La3    O389      2.48339      .   S
    La2    O378      2.37505      .   S
    La2    O380      2.43035      .   S
    La2    O388      2.47975      .   S
    La5    O385      2.37850      .   S
    La5    O386      2.43063      .   S
    La5    O383      2.48344      .   S
    La4    O384      2.37747      .   S
    La4    O387      2.42913  1_455   S
    La4    O382      2.48275      .   S
    O378   N350      1.34974      .   S
    O379   N351      1.34936      .   S
    O384   N352      1.34932      .   S
    O385   N353      1.34933      .   S
    H63    C227      1.08684      .   S
    H81    C251      1.08672      .   S
    H80    C250      1.08680      .   S
    H62    C226      1.08677      .   S
    O381   C247      1.28045      .   S
    O387   C271      1.28156      .   S
    O386   C270      1.28156      .   S
    O380   C246      1.28144      .   S
    N351   C227      1.37321      .   S
    N351   C241      1.37325      .   S
    N352   C251      1.37292  1_455   S
    N352   C264      1.37342      .   S
    N350   C226      1.37315      .   S
    N350   C240      1.37348      .   S
    N353   C250      1.37317      .   S
    N353   C265      1.37325      .   S
    O389   C271      1.27389      .   S
    O383   C247      1.27337      .   S
    O388   C270      1.27384      .   S
    O382   C246      1.27397      .   S
    C227   C235      1.36888      .   S
    C251   C259      1.36971      .   S
    C250   C258      1.36956      .   S
    C226   C234      1.36965      .   S
    C247   C225      1.49539      .   S
    C271   C249      1.49375      .   S
    C270   C248      1.49344      .   S
    C246   C224      1.49370      .   S
    H149   C339      1.08968      .   S
    H23    C171      1.09058      .   S
    H148   C338      1.09053      .   S
    H22    C170      1.09058      .   S
    H74    C240      1.08659      .   S
    H75    C241      1.08661      .   S
    H93    C265      1.08657      .   S
    H92    C264      1.08660      .   S
    C240   C232      1.36959      .   S
    C241   C233      1.36975      .   S
    C264   C256      1.36956      .   S
    C265   C257      1.36978      .   S
    C235   H69       1.08776      .   S
    C235   C231      1.43171      .   S
    C259   H87       1.08783  1_545   S
    C259   C254      1.43070  1_655   S
    C258   H86       1.08780  1_545   S
    C258   C255      1.43109      .   S
    C234   H68       1.08763      .   S
    C234   C230      1.43092      .   S
    H144   C334      1.09056      .   S
    H145   C335      1.09051      .   S
    H19    C167      1.09052      .   S
    H18    C166      1.09046      .   S
    C339   C335      1.39941      .   S
    C339   C341      1.39734      .   S
    C171   C167      1.39956      .   S
    C171   C173      1.39760      .   S
    C338   C334      1.39907      .   S
    C338   C340      1.39688      .   S
    C170   C166      1.39902      .   S
    C170   C172      1.39697      .   S
    H71    C237      1.08911      .   S
    H88    C260      1.08918      .   S
    H70    C236      1.08912      .   S
    H89    C261      1.08919      .   S
    C248   C260      1.40165      .   S
    C248   C252      1.40495      .   S
    C225   C237      1.40156      .   S
    C225   C229      1.40473      .   S
    C249   C261      1.40147      .   S
    C249   C253      1.40469      .   S
    C224   C236      1.40155      .   S
    C224   C228      1.40473      .   S
    H24    C173      1.09042      .   S
    H25    C172      1.09007  1_655   S
    H151   C341      1.09040      .   S
    H150   C340      1.09036      .   S
    C335   C325      1.39233      .   S
    C334   C324      1.39130      .   S
    C167   C157      1.39227      .   S
    C232   C230      1.43151      .   S
    C232   H66       1.08789      .   S
    C233   C231      1.43162      .   S
    C233   H67       1.08789      .   S
    C256   C254      1.43169      .   S
    C256   H84       1.08784      .   S
    C257   C255      1.43163      .   S
    C257   H85       1.08003      .   S
    C166   C156      1.39253      .   S
    H82    C252      1.08942      .   S
    H83    C253      1.08907      .   S
    H65    C229      1.08905      .   S
    H64    C228      1.08905      .   S
    C260   C268      1.39518      .   S
    C237   C245      1.39519      .   S
    C261   C269      1.39515      .   S
    C236   C244      1.39519      .   S
    C173   C165      1.39517      .   S
    C341   C333      1.39529      .   S
    C172   C164      1.39504      .   S
    C340   C332      1.39513      .   S
    C254   C159      1.43028  1_445   S
    C231   C327      1.43050      .   S
    C255   C158      1.43037  1_545   S
    C230   C326      1.43016      .   S
    C252   C262      1.39243      .   S
    C253   C263      1.39227      .   S
    C229   C239      1.39240      .   S
    C228   C238      1.39228      .   S
    H13    C161      1.08799      .   S
    H139   C329      1.08785      .   S
    H12    C160      1.08792      .   S
    H138   C328      1.08792      .   S
    C324   H136      1.08947      .   S
    C324   C320      1.40532      .   S
    C325   H137      1.08907      .   S
    C325   C321      1.40478      .   S
    C157   H11       1.08908      .   S
    C157   C153      1.40473      .   S
    C156   H10       1.08901      .   S
    C156   C152      1.40463      .   S
    C159   C161      1.43168      .   S
    C159   C162      1.43078  1_655   S
    C327   C329      1.43160      .   S
    C327   C331      1.43092      .   S
    C158   C160      1.43169      .   S
    C158   C163      1.43101      .   S
    C268   H97       1.09040      .   S
    C268   C266      1.39690      .   S
    C245   H79       1.09041      .   S
    C245   C243      1.39692      .   S
    C269   H96       1.09000  1_655   S
    C269   C267      1.39693      .   S
    C244   H78       1.09039      .   S
    C244   C242      1.39685      .   S
    C326   C328      1.43156      .   S
    C326   C330      1.42816      .   S
    C165   C153      1.40156      .   S
    C165   H17       1.08924      .   S
    C333   C321      1.40156      .   S
    C333   H143      1.08915      .   S
    C332   C320      1.40150      .   S
    C332   H142      1.08910      .   S
    C164   C152      1.40170      .   S
    C164   H16       1.08840      .   S
    C161   C169      1.36971      .   S
    C329   C337      1.36983      .   S
    C160   C168      1.36970      .   S
    C262   C266      1.39909      .   S
    C262   H90       1.09050      .   S
    C263   C267      1.39912      .   S
    C263   H91       1.08980      .   S
    C239   C243      1.39906      .   S
    C239   H73       1.09006      .   S
    C238   C242      1.39909      .   S
    C238   H72       1.09048      .   S
    C328   C336      1.36950      .   S
    C321   C343      1.49381      .   S
    C153   C175      1.49363      .   S
    C320   C342      1.49370      .   S
    C152   C174      1.49214      .   S
    C266   H94       1.09049      .   S
    C243   H77       1.09049      .   S
    C267   H95       1.09048      .   S
    C242   H76       1.09056      .   S
    H140   C330      1.08723      .   S
    H14    C162      1.08779  1_545   S
    H141   C331      1.08768      .   S
    H15    C163      1.08783  1_545   S
    C162   C154      1.36949      .   S
    C331   C323      1.36966      .   S
    C330   C322      1.37305      .   S
    C163   C155      1.36977      .   S
    C169   H21       1.08657      .   S
    C169   N345      1.37336      .   S
    C337   H147      1.08660      .   S
    C337   N359      1.37318      .   S
    C168   H20       1.08656      .   S
    C168   N344      1.37319      .   S
    C336   H146      1.08668      .   S
    C336   N358      1.37328      .   S
    C342   O406      1.27373      .   S
    C342   O404      1.28150      .   S
    C343   O407      1.27371      .   S
    C343   O405      1.28160      .   S
    C175   O365      1.27379      .   S
    C175   O363      1.28091      .   S
    C174   O364      1.27442      .   S
    C174   O362      1.28249      .   S
    C154   N345      1.37285  1_455   S
    C154   H8        1.07629      .   S
    C323   N359      1.37321      .   S
    C323   H135      1.08683      .   S
    C155   N344      1.37328      .   S
    C155   H9        1.08668      .   S
    C322   N358      1.37316      .   S
    C322   H134      1.07505      .   S
    O406   La0       2.48385      .   S
    O407   La1       2.48390      .   S
    O365   La7       2.48329      .   S
    O364   La6       2.47864      .   S
    N345   O361      1.34916      .   S
    N359   O403      1.34947      .   S
    N344   O360      1.34942      .   S
    N358   O402      1.34888      .   S
    O363   La0       2.43006      .   S
    O405   La7       2.42897      .   S
    O404   La6       2.42916      .   S
    O362   La1       2.42898  1_455   S
    O361   La1       2.37887      .   S
    O403   La7       2.37881      .   S
    O360   La0       2.37844      .   S
    O402   La6       2.37632      .   S
    La0    O366      2.37868      .   S
    La0    O369      2.42978      .   S
    La0    O400      2.48422      .   S
    La7    O397      2.37852      .   S
    La7    O399      2.42958      .   S
    La7    O371      2.48221      .   S
    La1    O367      2.37710      .   S
    La1    O368      2.43058  1_655   S
    La1    O401      2.48401      .   S
    La6    O396      2.37724      .   S
    La6    O398      2.42797      .   S
    La6    O370      2.48059      .   S
    O366   N346      1.34931      .   S
    O397   N357      1.34900      .   S
    O396   N356      1.34896      .   S
    O367   N347      1.34932      .   S
    H27    C179      1.08689      .   S
    H117   C299      1.08689      .   S
    H26    C178      1.08754      .   S
    H116   C298      1.08683      .   S
    O399   C319      1.28168      .   S
    O369   C199      1.28157      .   S
    O368   C198      1.28147      .   S
    O398   C318      1.28144      .   S
    N346   C179      1.37322      .   S
    N346   C192      1.37327      .   S
    N357   C299      1.37330      .   S
    N357   C313      1.37298      .   S
    N356   C298      1.37320      .   S
    N356   C312      1.37333      .   S
    N347   C178      1.37281  1_655   S
    N347   C193      1.37237      .   S
    O371   C199      1.27419      .   S
    O401   C319      1.27381      .   S
    O370   C198      1.27400      .   S
    O400   C318      1.27348      .   S
    C179   C187      1.36962      .   S
    C299   C307      1.36962      .   S
    C178   C186      1.36955      .   S
    C298   C306      1.36971      .   S
    C199   C177      1.49316      .   S
    C319   C297      1.49373      .   S
    C198   C176      1.49369      .   S
    C318   C296      1.49347      .   S
    H59    C219      1.09045      .   S
    H112   C290      1.09057      .   S
    H113   C291      1.09058      .   S
    H58    C218      1.09065      .   S
    H128   C312      1.08660      .   S
    H38    C192      1.08659      .   S
    H129   C313      1.08641      .   S
    H39    C193      1.08628      .   S
    C192   C184      1.36973      .   S
    C313   C305      1.37055      .   S
    C312   C304      1.36959      .   S
    C193   C185      1.37094      .   S
    C187   H33       1.08766      .   S
    C187   C182      1.43099      .   S
    C307   H123      1.08783  1_565   S
    C307   C303      1.43099      .   S
    C186   H32       1.08763      .   S
    C186   C183      1.43061  1_455   S
    C306   H122      1.08782  1_565   S
    C306   C302      1.43096      .   S
    H54    C214      1.09047      .   S
    H55    C215      1.09048      .   S
    H109   C287      1.09051      .   S
    H108   C286      1.09049      .   S
    C219   C215      1.39907      .   S
    C219   C221      1.39698      .   S
    C290   C286      1.39909      .   S
    C290   C292      1.39687      .   S
    C218   C214      1.39907      .   S
    C218   C220      1.39670      .   S
    C291   C287      1.39909      .   S
    C291   C293      1.39691      .   S
    H125   C309      1.08908      .   S
    H34    C188      1.08850      .   S
    H35    C189      1.08918      .   S
    H124   C308      1.08922      .   S
    C177   C189      1.40170      .   S
    C177   C181      1.40481      .   S
    C297   C309      1.40147      .   S
    C297   C301      1.40471      .   S
    C176   C188      1.40110      .   S
    C176   C180      1.40475      .   S
    C296   C308      1.40159      .   S
    C296   C300      1.40473      .   S
    H115   C292      1.09036      .   S
    H61    C221      1.09090      .   S
    H114   C293      1.09001  1_455   S
    H60    C220      1.09026      .   S
    C184   C182      1.43160      .   S
    C184   H30       1.08795      .   S
    C305   C303      1.43162      .   S
    C305   H121      1.08792      .   S
    C304   C302      1.43152      .   S
    C304   H120      1.08785      .   S
    C185   C183      1.43160      .   S
    C185   H31       1.08792      .   S
    H29    C181      1.08895      .   S
    H28    C180      1.08907      .   S
    H119   C301      1.08904      .   S
    H118   C300      1.08937      .   S
