# CIF file generated by openbabel 2.4.90, see http://openbabel.sf.net
data_I
_chemical_name_common ''
_cell_length_a 13.201
_cell_length_b 23.707
_cell_length_c 16.267
_cell_angle_alpha 90.023
_cell_angle_beta 89.995
_cell_angle_gamma 90
_space_group_name_H-M_alt 'P 1'
_space_group_name_Hall 'P 1'
loop_
    _symmetry_equiv_pos_as_xyz
    x,y,z
loop_
    _atom_site_label
    _atom_site_type_symbol
    _atom_site_fract_x
    _atom_site_fract_y
    _atom_site_fract_z
    _atom_site_occupancy
    Cd0     Cd   0.77246   0.47233   0.12083   1.000
    Cd1     Cd   0.60044   0.78065   0.47257   1.000
    Cd2     Cd   0.72757   0.02768   0.62080   1.000
    Cd3     Cd   0.89959   0.28068   0.52730   1.000
    Cd4     Cd   0.77245   0.52767   0.37920   1.000
    Cd5     Cd   0.60046   0.21935   0.02748   1.000
    Cd6     Cd   0.72756   0.97233   0.87923   1.000
    Cd7     Cd   0.10044   0.28067   0.02730   1.000
    Cd8     Cd   0.22753   0.52768   0.87922   1.000
    Cd9     Cd   0.39956   0.21936   0.52740   1.000
    Cd10    Cd   0.27242   0.97232   0.37923   1.000
    Cd11    Cd   0.10041   0.71932   0.47267   1.000
    Cd12    Cd   0.22754   0.47234   0.62083   1.000
    Cd13    Cd   0.39953   0.78066   0.97257   1.000
    Cd14    Cd   0.27244   0.02768   0.12082   1.000
    H15     H    0.86724   0.66246   0.31320   1.000
    H16     H    0.63244   0.83764   0.81305   1.000
    Cd17    Cd   0.89955   0.71934   0.97268   1.000
    H18     H    0.86728   0.33755   0.18685   1.000
    H19     H    0.63245   0.16237   0.68701   1.000
    H20     H    0.13276   0.33755   0.68685   1.000
    H21     H    0.36755   0.16237   0.18700   1.000
    H22     H    0.13272   0.66246   0.81320   1.000
    H23     H    0.36754   0.83764   0.31303   1.000
    C24     C    0.84494   0.59953   0.14302   1.000
    C25     C    0.85462   0.63453   0.26130   1.000
    C26     C    0.65504   0.90051   0.64290   1.000
    C27     C    0.64516   0.86555   0.76117   1.000
    C28     C    0.84497   0.40048   0.35703   1.000
    C29     C    0.85465   0.36548   0.23870   1.000
    C30     C    0.65505   0.09950   0.85714   1.000
    C31     C    0.64517   0.13446   0.73889   1.000
    C32     C    0.15505   0.40048   0.85703   1.000
    C33     C    0.14538   0.36548   0.73875   1.000
    C34     C    0.34495   0.09950   0.35713   1.000
    C35     C    0.35484   0.13446   0.23888   1.000
    C36     C    0.15503   0.59953   0.64302   1.000
    C37     C    0.14535   0.63453   0.76130   1.000
    C38     C    0.34494   0.90050   0.14290   1.000
    C39     C    0.35482   0.86555   0.26110   1.000
    N40     N    0.82491   0.58046   0.27168   1.000
    N41     N    0.81806   0.55764   0.19454   1.000
    N42     N    0.86795   0.64857   0.18172   1.000
    N43     N    0.67495   0.91961   0.77100   1.000
    N44     N    0.68192   0.94240   0.69447   1.000
    N45     N    0.63189   0.85149   0.68157   1.000
    N46     N    0.82493   0.41955   0.22837   1.000
    N47     N    0.81808   0.44236   0.30551   1.000
    N48     N    0.86799   0.35144   0.31833   1.000
    N49     N    0.67496   0.08040   0.72846   1.000
    N50     N    0.68193   0.05761   0.80558   1.000
    N51     N    0.63189   0.14852   0.81849   1.000
    N52     N    0.17508   0.41955   0.72837   1.000
    N53     N    0.18192   0.44237   0.80551   1.000
    N54     N    0.13204   0.35144   0.81833   1.000
    N55     N    0.32504   0.08040   0.22845   1.000
    N56     N    0.31808   0.05761   0.30550   1.000
    N57     N    0.36811   0.14852   0.31840   1.000
    N58     N    0.17506   0.58046   0.77168   1.000
    N59     N    0.18192   0.55764   0.69454   1.000
    N60     N    0.13201   0.64857   0.68172   1.000
    N61     N    0.32503   0.91960   0.27159   1.000
    N62     N    0.31806   0.94240   0.19440   1.000
    N63     N    0.36809   0.85149   0.18155   1.000
loop_
    _geom_bond_atom_site_label_1
    _geom_bond_atom_site_label_2
    _geom_bond_distance
    _geom_bond_site_symmetry_2
    _ccdc_geom_bond_type
    Cd14   N62       2.42587  1_545   S
    Cd14   N55       2.26018      .   S
    Cd0    N41       2.42662      .   S
    Cd0    N46       2.26009      .   S
    C38    N63       1.35631      .   S
    C38    N62       1.34663      .   S
    C24    N42       1.35634      .   S
    C24    N41       1.34724      .   S
    N63    C39       1.34755      .   S
    N42    C25       1.34830      .   S
    H18    C29       1.08492      .   S
    H21    C35       1.08557      .   S
    N62    N61       1.37030      .   S
    N41    N40       1.36925      .   S
    N46    C29       1.35108      .   S
    N46    N47       1.36925      .   S
    N55    C35       1.35117      .   S
    N55    N56       1.36819      .   S
    C29    N48       1.34909      .   S
    C35    N57       1.34712      .   S
    C39    N61       1.35129      .   S
    C39    H23       1.08624      .   S
    C25    N40       1.35117      .   S
    C25    H15       1.08557      .   S
    N61    Cd10      2.26018      .   S
    N40    Cd4       2.25974      .   S
    N56    C34       1.34800      .   S
    N56    Cd10      2.42719  1_545   S
    N47    C28       1.34725      .   S
    N47    Cd4       2.42639      .   S
    N48    C28       1.35633      .   S
    N57    C34       1.35687      .   S
    Cd2    N44       2.42668  1_545   S
    Cd2    N49       2.26044      .   S
    Cd12   N59       2.42656      .   S
    Cd12   N52       2.25998      .   S
    C26    N45       1.35644      .   S
    C26    N44       1.34740      .   S
    C36    N60       1.35635      .   S
    C36    N59       1.34724      .   S
    N45    C27       1.34836      .   S
    N60    C37       1.34831      .   S
    H20    C33       1.08556      .   S
    H19    C31       1.08560      .   S
    N44    N43       1.36045      .   S
    N59    N58       1.36926      .   S
    N52    C33       1.35118      .   S
    N52    N53       1.36925      .   S
    N49    C31       1.35116      .   S
    N49    N50       1.36926      .   S
    C33    N54       1.34829      .   S
    C31    N51       1.34833      .   S
    C27    N43       1.35000      .   S
    C27    H16       1.08557      .   S
    C37    N58       1.35118      .   S
    C37    H22       1.08555      .   S
    N43    Cd6       2.26773      .   S
    N58    Cd8       2.26008      .   S
    N53    C32       1.34722      .   S
    N53    Cd8       2.42661      .   S
    N50    C30       1.34723      .   S
    N50    Cd6       2.42644  1_545   S
    N54    C32       1.35635      .   S
    N51    C30       1.35632      .   S
