# CIF file generated by openbabel 2.4.90, see http://openbabel.sf.net
data_I
_chemical_name_common ''
_cell_length_a 13.201
_cell_length_b 23.707
_cell_length_c 16.267
_cell_angle_alpha 90.023
_cell_angle_beta 89.995
_cell_angle_gamma 90
_space_group_name_H-M_alt 'P 1'
_space_group_name_Hall 'P 1'
loop_
    _symmetry_equiv_pos_as_xyz
    x,y,z
loop_
    _atom_site_label
    _atom_site_type_symbol
    _atom_site_fract_x
    _atom_site_fract_y
    _atom_site_fract_z
    _atom_site_occupancy
    Cd0     Cd   0.77246   0.47233   0.12083   1.000
    Cd1     Cd   0.60044   0.78065   0.47257   1.000
    Cd2     Cd   0.72757   0.02768   0.62080   1.000
    Cd3     Cd   0.89959   0.28068   0.52730   1.000
    Cd4     Cd   0.77245   0.52767   0.37920   1.000
    Cd5     Cd   0.60046   0.21935   0.02748   1.000
    Cd6     Cd   0.72756   0.97233   0.87923   1.000
    Cd7     Cd   0.10044   0.28067   0.02730   1.000
    Cd8     Cd   0.22753   0.52768   0.87922   1.000
    Cd9     Cd   0.39956   0.21936   0.52740   1.000
    Cd10    Cd   0.27242   0.97232   0.37923   1.000
    Cd11    Cd   0.10041   0.71932   0.47267   1.000
    Cd12    Cd   0.22754   0.47234   0.62083   1.000
    Cd13    Cd   0.39953   0.78066   0.97257   1.000
    Cd14    Cd   0.27244   0.02768   0.12082   1.000
    H15     H    0.86724   0.66246   0.31320   1.000
    H16     H    0.63244   0.83764   0.81305   1.000
    Cd17    Cd   0.89955   0.71934   0.97268   1.000
    H18     H    0.86728   0.33755   0.18685   1.000
    H19     H    0.63245   0.16237   0.68701   1.000
    H20     H    0.13276   0.33755   0.68685   1.000
    H21     H    0.36755   0.16237   0.18700   1.000
    H22     H    0.13272   0.66246   0.81320   1.000
    H23     H    0.36754   0.83764   0.31303   1.000
    C24     C    0.84494   0.59953   0.14302   1.000
    C25     C    0.85462   0.63453   0.26130   1.000
    C26     C    0.65504   0.90051   0.64290   1.000
    C27     C    0.64516   0.86555   0.76117   1.000
    C28     C    0.84497   0.40048   0.35703   1.000
    C29     C    0.85465   0.36548   0.23870   1.000
    C30     C    0.65505   0.09950   0.85714   1.000
    C31     C    0.64517   0.13446   0.73889   1.000
    C32     C    0.15505   0.40048   0.85703   1.000
    C33     C    0.14538   0.36548   0.73875   1.000
    C34     C    0.34495   0.09950   0.35713   1.000
    C35     C    0.35484   0.13446   0.23888   1.000
    C36     C    0.15503   0.59953   0.64302   1.000
    C37     C    0.14535   0.63453   0.76130   1.000
    C38     C    0.34494   0.90050   0.14290   1.000
    C39     C    0.35482   0.86555   0.26110   1.000
    N40     N    0.82491   0.58046   0.27168   1.000
    N41     N    0.81806   0.55764   0.19454   1.000
    N42     N    0.86795   0.64857   0.18172   1.000
    N43     N    0.67495   0.91961   0.77100   1.000
    N44     N    0.68192   0.94240   0.69447   1.000
    N45     N    0.63189   0.85149   0.68157   1.000
    N46     N    0.82493   0.41955   0.22837   1.000
    N47     N    0.81808   0.44236   0.30551   1.000
    N48     N    0.86799   0.35144   0.31833   1.000
    N49     N    0.67496   0.08040   0.72846   1.000
    N50     N    0.68193   0.05761   0.80558   1.000
    N51     N    0.63189   0.14852   0.81849   1.000
    N52     N    0.17508   0.41955   0.72837   1.000
    N53     N    0.18192   0.44237   0.80551   1.000
    N54     N    0.13204   0.35144   0.81833   1.000
    N55     N    0.32504   0.08040   0.22845   1.000
    N56     N    0.31808   0.05761   0.30550   1.000
    N57     N    0.36811   0.14852   0.31840   1.000
    N58     N    0.17506   0.58046   0.77168   1.000
    N59     N    0.18192   0.55764   0.69454   1.000
    N60     N    0.13201   0.64857   0.68172   1.000
    N61     N    0.32503   0.91960   0.27159   1.000
    N62     N    0.31806   0.94240   0.19440   1.000
    N63     N    0.36809   0.85149   0.18155   1.000
    Ts64    Ts   0.79166   0.49354   0.08901   1.000
    Ts65    Ts   0.74075   0.44820   0.10154   1.000
    Ts66    Ts   0.71346   0.48128   0.12319   1.000
    Ts67    Ts   0.61229   0.81193   0.47987   1.000
    Ts68    Ts   0.60644   0.79562   0.42831   1.000
    Ts69    Ts   0.65585   0.76877   0.47681   1.000
    Ts70    Ts   0.59815   0.74703   0.46983   1.000
    Ts71    Ts   0.54305   0.78095   0.47643   1.000
    Ts72    Ts   0.70841   0.00647   0.58896   1.000
    Ts73    Ts   0.75927   0.05183   0.60154   1.000
    Ts74    Ts   0.78657   0.01875   0.62316   1.000
    Ts75    Ts   0.84416   0.26880   0.52287   1.000
    Ts76    Ts   0.88778   0.31197   0.52002   1.000
    Ts77    Ts   0.89364   0.29568   0.57157   1.000
    Ts78    Ts   0.90186   0.24707   0.53010   1.000
    Ts79    Ts   0.95698   0.28098   0.52347   1.000
    Ts80    Ts   0.74073   0.55179   0.39850   1.000
    Ts81    Ts   0.71345   0.51872   0.37683   1.000
    Ts82    Ts   0.79166   0.50646   0.41103   1.000
    Ts83    Ts   0.65588   0.23123   0.02324   1.000
    Ts84    Ts   0.61231   0.18807   0.02018   1.000
    Ts85    Ts   0.60646   0.20438   0.07172   1.000
    Ts86    Ts   0.59818   0.25297   0.03022   1.000
    Ts87    Ts   0.54307   0.21905   0.02359   1.000
    Ts88    Ts   0.75926   0.94819   0.89849   1.000
    Ts89    Ts   0.78656   0.98127   0.87687   1.000
    Ts90    Ts   0.70840   0.99355   0.91108   1.000
    Ts91    Ts   0.04305   0.28097   0.02347   1.000
    Ts92    Ts   0.15587   0.26879   0.02309   1.000
    Ts93    Ts   0.11225   0.31196   0.02002   1.000
    Ts94    Ts   0.10639   0.29567   0.07157   1.000
    Ts95    Ts   0.09817   0.24705   0.03011   1.000
    Ts96    Ts   0.20833   0.50647   0.91104   1.000
    Ts97    Ts   0.25925   0.55180   0.89848   1.000
    Ts98    Ts   0.28654   0.51873   0.87684   1.000
    Ts99    Ts   0.45695   0.21906   0.52356   1.000
    Ts100   Ts   0.34414   0.23124   0.52318   1.000
    Ts101   Ts   0.38771   0.18808   0.52013   1.000
    Ts102   Ts   0.39355   0.20439   0.57168   1.000
    Ts103   Ts   0.40184   0.25298   0.53016   1.000
    Ts104   Ts   0.29159   0.99354   0.41108   1.000
    Ts105   Ts   0.24072   0.94818   0.39849   1.000
    Ts106   Ts   0.21342   0.98126   0.37687   1.000
    Ts107   Ts   0.04302   0.71903   0.47653   1.000
    Ts108   Ts   0.15584   0.73121   0.47690   1.000
    Ts109   Ts   0.11222   0.68804   0.47998   1.000
    Ts110   Ts   0.10636   0.70433   0.42843   1.000
    Ts111   Ts   0.09814   0.75294   0.46989   1.000
    Ts112   Ts   0.25926   0.44822   0.60154   1.000
    Ts113   Ts   0.28654   0.48129   0.62321   1.000
    Ts114   Ts   0.20834   0.49354   0.58901   1.000
    Ts115   Ts   0.45693   0.78096   0.97641   1.000
    Ts116   Ts   0.34411   0.76878   0.97681   1.000
    Ts117   Ts   0.38768   0.81194   0.97987   1.000
    Ts118   Ts   0.39353   0.79562   0.92832   1.000
    Ts119   Ts   0.40182   0.74704   0.96983   1.000
    Ts120   Ts   0.24074   0.05182   0.10156   1.000
    Ts121   Ts   0.21344   0.01874   0.12318   1.000
    Ts122   Ts   0.29159   0.00646   0.08897   1.000
    Ts123   Ts   0.84413   0.73122   0.97691   1.000
    Ts124   Ts   0.88775   0.68805   0.97999   1.000
    Ts125   Ts   0.89360   0.70434   0.92844   1.000
    Ts126   Ts   0.90183   0.75295   0.96990   1.000
    Ts127   Ts   0.95694   0.71904   0.97653   1.000
    Ts128   Ts   0.84574   0.59581   0.11387   1.000
    Ts129   Ts   0.65426   0.90421   0.61375   1.000
    Ts130   Ts   0.84576   0.40419   0.38618   1.000
    Ts131   Ts   0.65428   0.09580   0.88609   1.000
    Ts132   Ts   0.15425   0.40419   0.88618   1.000
    Ts133   Ts   0.34573   0.09580   0.38628   1.000
    Ts134   Ts   0.15424   0.59582   0.61387   1.000
    Ts135   Ts   0.34571   0.90421   0.11375   1.000
loop_
    _geom_bond_atom_site_label_1
    _geom_bond_atom_site_label_2
    _geom_bond_distance
    _geom_bond_site_symmetry_2
    _ccdc_geom_bond_type
    Cd14   N62       2.42587  1_545   S
    Cd14   N55       2.26018      .   S
    Cd0    N41       2.42662      .   S
    Cd0    N46       2.26009      .   S
    C38    N63       1.35631      .   S
    C38    N62       1.34663      .   S
    C24    N42       1.35634      .   S
    C24    N41       1.34724      .   S
    N63    C39       1.34755      .   S
    N42    C25       1.34830      .   S
    H18    C29       1.08492      .   S
    H21    C35       1.08557      .   S
    N62    N61       1.37030      .   S
    N41    N40       1.36925      .   S
    N46    C29       1.35108      .   S
    N46    N47       1.36925      .   S
    N55    C35       1.35117      .   S
    N55    N56       1.36819      .   S
    C29    N48       1.34909      .   S
    C35    N57       1.34712      .   S
    C39    N61       1.35129      .   S
    C39    H23       1.08624      .   S
    C25    N40       1.35117      .   S
    C25    H15       1.08557      .   S
    N61    Cd10      2.26018      .   S
    N40    Cd4       2.25974      .   S
    N56    C34       1.34800      .   S
    N56    Cd10      2.42719  1_545   S
    N47    C28       1.34725      .   S
    N47    Cd4       2.42639      .   S
    N48    C28       1.35633      .   S
    N57    C34       1.35687      .   S
    Cd2    N44       2.42668  1_545   S
    Cd2    N49       2.26044      .   S
    Cd12   N59       2.42656      .   S
    Cd12   N52       2.25998      .   S
    C26    N45       1.35644      .   S
    C26    N44       1.34740      .   S
    C36    N60       1.35635      .   S
    C36    N59       1.34724      .   S
    N45    C27       1.34836      .   S
    N60    C37       1.34831      .   S
    H20    C33       1.08556      .   S
    H19    C31       1.08560      .   S
    N44    N43       1.36045      .   S
    N59    N58       1.36926      .   S
    N52    C33       1.35118      .   S
    N52    N53       1.36925      .   S
    N49    C31       1.35116      .   S
    N49    N50       1.36926      .   S
    C33    N54       1.34829      .   S
    C31    N51       1.34833      .   S
    C27    N43       1.35000      .   S
    C27    H16       1.08557      .   S
    C37    N58       1.35118      .   S
    C37    H22       1.08555      .   S
    N43    Cd6       2.26773      .   S
    N58    Cd8       2.26008      .   S
    N53    C32       1.34722      .   S
    N53    Cd8       2.42661      .   S
    N50    C30       1.34723      .   S
    N50    Cd6       2.42644  1_545   S
    N54    C32       1.35635      .   S
    N51    C30       1.35632      .   S
    Cd0    Ts64      0.76490      .   S
    Cd0    Ts65      0.77508      .   S
    Cd0    Ts66      0.80818      .   S
    Cd1    Ts67      0.76710      .   S
    Cd1    Ts68      0.80665      .   S
    Cd1    Ts69      0.78690      .   S
    Cd1    Ts70      0.79885      .   S
    Cd1    Ts71      0.76026      .   S
    Cd2    Ts72      0.76492      .   S
    Cd2    Ts73      0.77520      .   S
    Cd2    Ts74      0.80804      .   S
    Cd3    Ts75      0.78739      .   S
    Cd3    Ts76      0.76711      .   S
    Cd3    Ts77      0.80689      .   S
    Cd3    Ts78      0.79878      .   S
    Cd3    Ts79      0.76020      .   S
    Cd4    Ts80      0.77512      .   S
    Cd4    Ts81      0.80819      .   S
    Cd4    Ts82      0.76498      .   S
    Cd5    Ts83      0.78695      .   S
    Cd5    Ts84      0.76707      .   S
    Cd5    Ts85      0.80641      .   S
    Cd5    Ts86      0.79877      .   S
    Cd5    Ts87      0.76032      .   S
    Cd6    Ts88      0.77519      .   S
    Cd6    Ts89      0.80805      .   S
    Cd6    Ts90      0.76493      .   S
    Cd7    Ts91      0.76018      .   S
    Cd7    Ts92      0.78701      .   S
    Cd7    Ts93      0.76714      .   S
    Cd7    Ts94      0.80680      .   S
    Cd7    Ts95      0.79887      .   S
    Cd8    Ts96      0.76490      .   S
    Cd8    Ts97      0.77489      .   S
    Cd8    Ts98      0.80820      .   S
    Cd9    Ts99      0.76023      .   S
    Cd9    Ts100     0.78686      .   S
    Cd9    Ts101     0.76703      .   S
    Cd9    Ts102     0.80694      .   S
    Cd9    Ts103     0.79886      .   S
    Cd10   Ts104     0.76500      .   S
    Cd10   Ts105     0.77524      .   S
    Cd10   Ts106     0.80802      .   S
    Cd11   Ts107     0.76025      .   S
    Cd11   Ts108     0.78710      .   S
    Cd11   Ts109     0.76717      .   S
    Cd11   Ts110     0.80645      .   S
    Cd11   Ts111     0.79878      .   S
    Cd12   Ts112     0.77507      .   S
    Cd12   Ts113     0.80818      .   S
    Cd12   Ts114     0.76490      .   S
    Cd13   Ts115     0.76025      .   S
    Cd13   Ts116     0.78694      .   S
    Cd13   Ts117     0.76706      .   S
    Cd13   Ts118     0.80660      .   S
    Cd13   Ts119     0.79878      .   S
    Cd14   Ts120     0.77519      .   S
    Cd14   Ts121     0.80806      .   S
    Cd14   Ts122     0.76492      .   S
    Cd17   Ts123     0.78705      .   S
    Cd17   Ts124     0.76720      .   S
    Cd17   Ts125     0.80646      .   S
    Cd17   Ts126     0.79885      .   S
    Cd17   Ts127     0.76021      .   S
    C24    Ts128     0.48237      .   S
    C26    Ts129     0.48233      .   S
    C28    Ts130     0.48237      .   S
    C30    Ts131     0.47923      .   S
    C32    Ts132     0.48237      .   S
    C34    Ts133     0.48238      .   S
    C36    Ts134     0.48237      .   S
    C38    Ts135     0.48238      .   S
