# CIF file generated by openbabel 2.4.90, see http://openbabel.sf.net
data_I
_chemical_name_common ''
_cell_length_a 13.201
_cell_length_b 23.707
_cell_length_c 16.267
_cell_angle_alpha 90.023
_cell_angle_beta 89.995
_cell_angle_gamma 90
_space_group_name_H-M_alt 'P 1'
_space_group_name_Hall 'P 1'
loop_
    _symmetry_equiv_pos_as_xyz
    x,y,z
loop_
    _atom_site_label
    _atom_site_type_symbol
    _atom_site_fract_x
    _atom_site_fract_y
    _atom_site_fract_z
    _atom_site_occupancy
    N0      N    0.61068   0.58823   0.42050   1.000
    N1      N    0.88929   0.91172   0.92051   1.000
    N2      N    0.13310   0.61988   0.32454   1.000
    N3      N    0.11070   0.91170   0.42051   1.000
    N4      N    0.61070   0.41175   0.07954   1.000
    N5      N    0.88930   0.08830   0.57949   1.000
    N6      N    0.63327   0.87999   0.32441   1.000
    N7      N    0.86689   0.38013   0.67551   1.000
    N8      N    0.13312   0.38012   0.17550   1.000
    N9      N    0.38931   0.41177   0.57952   1.000
    N10     N    0.36672   0.12002   0.67563   1.000
    N11     N    0.36669   0.87999   0.82441   1.000
    N12     N    0.86687   0.61989   0.82454   1.000
    N13     N    0.38930   0.58825   0.92050   1.000
    N14     N    0.11070   0.08829   0.07952   1.000
    N15     N    0.63330   0.12001   0.17559   1.000
    Zr16    Zr   0.66414   0.00000   0.74998   1.000
    Zr17    Zr   0.10041   0.71932   0.47267   1.000
    O18     O    0.95645   0.68644   0.46107   1.000
    Zr19    Zr   0.39956   0.21936   0.52740   1.000
    O20     O    0.54351   0.18648   0.53898   1.000
    Zr21    Zr   0.16424   0.50001   0.75003   1.000
    Zr22    Zr   0.83575   0.50000   0.25002   1.000
    Zr23    Zr   0.33585   0.00000   0.25000   1.000
    Zr24    Zr   0.89955   0.71934   0.97268   1.000
    O25     O    0.04351   0.68646   0.96108   1.000
    Zr26    Zr   0.60044   0.78065   0.47257   1.000
    O27     O    0.45648   0.81352   0.46100   1.000
    Zr28    Zr   0.60046   0.21935   0.02748   1.000
    O29     O    0.45650   0.18647   0.03903   1.000
    Zr30    Zr   0.39953   0.78066   0.97257   1.000
    O31     O    0.54350   0.81354   0.96100   1.000
    Zr32    Zr   0.10044   0.28067   0.02730   1.000
    O33     O    0.95648   0.31355   0.03892   1.000
    Zr34    Zr   0.89959   0.28068   0.52730   1.000
    O35     O    0.04354   0.31357   0.53892   1.000
    O36     O    0.84053   0.45777   0.39735   1.000
    O37     O    0.88808   0.31422   0.57129   1.000
    O38     O    0.84052   0.54224   0.10269   1.000
    O39     O    0.74665   0.53182   0.32811   1.000
    O40     O    0.74666   0.46818   0.17193   1.000
    O41     O    0.61199   0.81416   0.42860   1.000
    O42     O    0.61296   0.72401   0.45983   1.000
    O43     O    0.15948   0.45777   0.89735   1.000
    O44     O    0.11194   0.31421   0.07129   1.000
    O45     O    0.65949   0.04227   0.89734   1.000
    O46     O    0.61202   0.18585   0.07143   1.000
    O47     O    0.25334   0.53183   0.82811   1.000
    O48     O    0.25335   0.46819   0.67193   1.000
    O49     O    0.15947   0.54224   0.60270   1.000
    O50     O    0.34052   0.04227   0.39739   1.000
    O51     O    0.38800   0.18585   0.57139   1.000
    O52     O    0.11297   0.22404   0.04009   1.000
    O53     O    0.88805   0.68580   0.92872   1.000
    O54     O    0.88702   0.77596   0.95991   1.000
    O55     O    0.24670   0.03184   0.17192   1.000
    O56     O    0.34051   0.95774   0.10263   1.000
    O57     O    0.24670   0.96816   0.32811   1.000
    O58     O    0.75329   0.03185   0.67190   1.000
    O59     O    0.88705   0.22406   0.54004   1.000
    O60     O    0.38704   0.27599   0.54016   1.000
    O61     O    0.38701   0.72403   0.95983   1.000
    O62     O    0.38798   0.81416   0.92860   1.000
    O63     O    0.65948   0.95774   0.60262   1.000
    O64     O    0.75329   0.96817   0.82810   1.000
    O65     O    0.61298   0.27598   0.04021   1.000
    O66     O    0.11191   0.68579   0.42871   1.000
    O67     O    0.11295   0.77595   0.45990   1.000
loop_
    _geom_bond_atom_site_label_1
    _geom_bond_atom_site_label_2
    _geom_bond_distance
    _geom_bond_site_symmetry_2
    _ccdc_geom_bond_type
    Zr17   O18       2.06266  1_455   S
    N0     O18       5.16631      .   S
    Zr19   O20       2.06267      .   S
    N5     O20       5.16624      .   S
    Zr24   O25       2.06264  1_655   S
    N13    O25       5.16630      .   S
    Zr26   O27       2.06264      .   S
    N3     O27       5.16621      .   S
    Zr28   O29       2.06265      .   S
    N14    O29       5.16630      .   S
    Zr30   O31       2.06269      .   S
    N1     O31       5.16628      .   S
    Zr32   O33       2.06267  1_455   S
    N4     O33       5.16636      .   S
    Zr34   O35       2.06268  1_655   S
    N9     O35       5.16634      .   S
    N7     O36       4.89802      .   S
    Zr22   O36       2.59845      .   S
    N7     O37       2.32200      .   S
    Zr34   O37       1.08021      .   S
    Zr22   O38       2.59843      .   S
    N12    O38       4.89798  1_556   S
    Zr22   O39       1.88818      .   S
    N0     O39       2.69574      .   S
    Zr22   O40       1.88835      .   S
    N4     O40       2.69591      .   S
    Zr26   O41       1.07994      .   S
    N6     O41       2.32148      .   S
    Zr26   O42       1.36847      .   S
    N0     O42       3.28179      .   S
    N8     O43       4.89792  1_554   S
    Zr21   O43       2.59843      .   S
    N8     O44       2.32198      .   S
    Zr32   O44       1.08019      .   S
    N15    O45       4.89873  1_554   S
    Zr16   O45       2.59833      .   S
    N15    O46       2.32111      .   S
    Zr28   O46       1.07978      .   S
    Zr21   O47       1.88822      .   S
    N13    O47       2.69592      .   S
    Zr21   O48       1.88826      .   S
    N9     O48       2.69594      .   S
    Zr21   O49       2.59844      .   S
    N2     O49       4.89799      .   S
    N10    O50       4.89860      .   S
    Zr23   O50       2.59890      .   S
    N10    O51       2.32203      .   S
    Zr19   O51       1.08023      .   S
    Zr32   O52       1.36863      .   S
    N14    O52       3.28208      .   S
    Zr24   O53       1.07992      .   S
    N12    O53       2.32151      .   S
    Zr24   O54       1.36858      .   S
    N1     O54       3.28199      .   S
    Zr23   O55       1.88919      .   S
    N14    O55       2.69717      .   S
    Zr23   O56       2.59856  1_545   S
    N11    O56       4.89816  1_556   S
    Zr23   O57       1.88942  1_545   S
    N3     O57       2.69729      .   S
    N5     O58       2.69728      .   S
    Zr16   O58       1.88920      .   S
    N5     O59       3.28204      .   S
    Zr34   O59       1.36845      .   S
    Zr19   O60       1.36851      .   S
    N9     O60       3.28184      .   S
    N13    O61       3.28165      .   S
    Zr30   O61       1.36840      .   S
    Zr30   O62       1.07992      .   S
    N11    O62       2.32148      .   S
    Zr16   O63       2.59846  1_545   S
    N6     O63       4.89814      .   S
    Zr16   O64       1.88952  1_545   S
    N1     O64       2.69736      .   S
    Zr28   O65       1.36838      .   S
    N4     O65       3.28160      .   S
    Zr17   O66       1.07987      .   S
    N2     O66       2.32140      .   S
    Zr17   O67       1.36852      .   S
    N3     O67       3.28185      .   S
