# CIF file generated by openbabel 2.4.90, see http://openbabel.sf.net
data_I
_chemical_name_common ''
_cell_length_a 13.201
_cell_length_b 23.707
_cell_length_c 16.267
_cell_angle_alpha 90.023
_cell_angle_beta 89.995
_cell_angle_gamma 90
_space_group_name_H-M_alt 'P 1'
_space_group_name_Hall 'P 1'
loop_
    _symmetry_equiv_pos_as_xyz
    x,y,z
loop_
    _atom_site_label
    _atom_site_type_symbol
    _atom_site_fract_x
    _atom_site_fract_y
    _atom_site_fract_z
    _atom_site_occupancy
    C0      C    0.89955   0.71934   0.97268   1.000
    C1      C    0.77246   0.47233   0.12083   1.000
    C2      C    0.60044   0.78065   0.47257   1.000
    C3      C    0.72757   0.02768   0.62080   1.000
    C4      C    0.89959   0.28068   0.52730   1.000
    C5      C    0.77245   0.52767   0.37920   1.000
    C6      C    0.60046   0.21935   0.02748   1.000
    C7      C    0.72756   0.97233   0.87923   1.000
    C8      C    0.10044   0.28067   0.02730   1.000
    C9      C    0.22753   0.52768   0.87922   1.000
    C10     C    0.39956   0.21936   0.52740   1.000
    C11     C    0.27242   0.97232   0.37923   1.000
    C12     C    0.10041   0.71932   0.47267   1.000
    C13     C    0.22754   0.47234   0.62083   1.000
    C14     C    0.39953   0.78066   0.97257   1.000
    C15     C    0.27244   0.02768   0.12082   1.000
    C16     C    0.90153   0.74457   0.76600   1.000
    C17     C    0.61139   0.69450   0.99870   1.000
    C18     C    0.88594   0.07852   0.82187   1.000
    C19     C    0.86724   0.66246   0.31320   1.000
    C20     C    0.07150   0.10165   0.82269   1.000
    C21     C    0.12465   0.93677   0.92747   1.000
    C22     C    0.19366   0.02819   0.87770   1.000
    C23     C    0.85090   0.53958   0.77814   1.000
    C24     C    0.89358   0.69085   0.63384   1.000
    C25     C    0.86851   0.58587   0.63917   1.000
    C26     C    0.59861   0.75528   0.26589   1.000
    C27     C    0.88855   0.80551   0.49860   1.000
    C28     C    0.61411   0.42144   0.32172   1.000
    C29     C    0.63244   0.83764   0.81305   1.000
    C30     C    0.42854   0.39827   0.32256   1.000
    C31     C    0.37528   0.56315   0.42754   1.000
    C32     C    0.30633   0.47170   0.37776   1.000
    C33     C    0.64928   0.96028   0.27798   1.000
    C34     C    0.60654   0.80893   0.13371   1.000
    C35     C    0.63162   0.91391   0.13903   1.000
    C36     C    0.90157   0.25546   0.73400   1.000
    C37     C    0.61141   0.30552   0.50137   1.000
    C38     C    0.88592   0.92150   0.67816   1.000
    C39     C    0.86728   0.33755   0.18685   1.000
    C40     C    0.07149   0.89838   0.67730   1.000
    C41     C    0.12467   0.06327   0.57258   1.000
    C42     C    0.19365   0.97184   0.62226   1.000
    C43     C    0.85090   0.46044   0.72192   1.000
    C44     C    0.89362   0.30918   0.86622   1.000
    C45     C    0.86851   0.41416   0.86089   1.000
    C46     C    0.59860   0.24472   0.23416   1.000
    C47     C    0.88859   0.19448   0.00143   1.000
    C48     C    0.61409   0.57854   0.17835   1.000
    C49     C    0.63245   0.16237   0.68701   1.000
    C50     C    0.42852   0.60171   0.17748   1.000
    C51     C    0.37530   0.43684   0.07249   1.000
    C52     C    0.30633   0.52829   0.12227   1.000
    C53     C    0.64936   0.03972   0.22207   1.000
    C54     C    0.60656   0.19107   0.36634   1.000
    C55     C    0.63169   0.08609   0.36102   1.000
    C56     C    0.09847   0.25544   0.23403   1.000
    C57     C    0.38861   0.30551   0.00135   1.000
    C58     C    0.11405   0.92149   0.17818   1.000
    C59     C    0.13276   0.33755   0.68685   1.000
    C60     C    0.92849   0.89836   0.17735   1.000
    C61     C    0.87535   0.06324   0.07258   1.000
    C62     C    0.80633   0.97182   0.12227   1.000
    C63     C    0.14910   0.46043   0.22191   1.000
    C64     C    0.10642   0.30916   0.36621   1.000
    C65     C    0.13150   0.41414   0.36088   1.000
    C66     C    0.40138   0.24472   0.73416   1.000
    C67     C    0.11145   0.19450   0.50144   1.000
    C68     C    0.38588   0.57856   0.67834   1.000
    C69     C    0.36755   0.16237   0.18700   1.000
    C70     C    0.57145   0.60173   0.67700   1.000
    C71     C    0.62472   0.43686   0.57251   1.000
    C72     C    0.69366   0.52831   0.62230   1.000
    C73     C    0.35070   0.03972   0.72206   1.000
    C74     C    0.39344   0.19107   0.86633   1.000
    C75     C    0.36836   0.08609   0.86100   1.000
    C76     C    0.09843   0.74455   0.26601   1.000
    C77     C    0.38859   0.69449   0.49869   1.000
    C78     C    0.11408   0.07850   0.32189   1.000
    C79     C    0.13272   0.66246   0.81320   1.000
    C80     C    0.92851   0.10163   0.32271   1.000
    C81     C    0.87533   0.93674   0.42747   1.000
    C82     C    0.80634   0.02816   0.37778   1.000
    C83     C    0.14910   0.53957   0.27813   1.000
    C84     C    0.10638   0.69083   0.13383   1.000
    C85     C    0.13149   0.58585   0.13916   1.000
    C86     C    0.40138   0.75529   0.76589   1.000
    C87     C    0.11140   0.80553   0.99863   1.000
    C88     C    0.38590   0.42146   0.82171   1.000
    C89     C    0.36754   0.83764   0.31303   1.000
    C90     C    0.57147   0.39829   0.82258   1.000
    C91     C    0.62469   0.56317   0.92756   1.000
    C92     C    0.69366   0.47172   0.87778   1.000
    C93     C    0.35063   0.96029   0.77798   1.000
    C94     C    0.39342   0.80893   0.63371   1.000
    C95     C    0.36830   0.91391   0.63900   1.000
    C96     C    0.88980   0.69902   0.76571   1.000
    C97     C    0.72403   0.81200   0.97262   1.000
    C98     C    0.84494   0.59953   0.14302   1.000
    C99     C    0.84734   0.58838   0.05557   1.000
    C100    C    0.85624   0.59315   0.92531   1.000
    C101    C    0.86699   0.61767   0.84330   1.000
    C102    C    0.63631   0.73789   0.99172   1.000
    C103    C    0.96994   0.95978   0.90130   1.000
    C104    C    0.81447   0.84516   0.95891   1.000
    C105    C    0.92508   0.90686   0.92900   1.000
    C106    C    0.94186   0.04855   0.84488   1.000
    C107    C    0.85462   0.63453   0.26130   1.000
    C108    C    0.04488   0.06102   0.84527   1.000
    C109    C    0.07462   0.96930   0.90349   1.000
    C110    C    0.11233   0.02049   0.87531   1.000
    C111    C    0.86160   0.58484   0.77186   1.000
    C112    C    0.88468   0.66914   0.69220   1.000
    C113    C    0.87085   0.61075   0.69556   1.000
    C114    C    0.61033   0.80084   0.26558   1.000
    C115    C    0.77592   0.68798   0.47268   1.000
    C116    C    0.65504   0.90051   0.64290   1.000
    C117    C    0.65272   0.91161   0.55546   1.000
    C118    C    0.64396   0.90678   0.42518   1.000
    C119    C    0.63315   0.88222   0.34324   1.000
    C120    C    0.86363   0.76211   0.49168   1.000
    C121    C    0.53003   0.54017   0.40130   1.000
    C122    C    0.68548   0.65481   0.45895   1.000
    C123    C    0.57487   0.59309   0.42907   1.000
    C124    C    0.55817   0.45140   0.34470   1.000
    C125    C    0.64516   0.86555   0.76117   1.000
    C126    C    0.45513   0.43891   0.34510   1.000
    C127    C    0.42532   0.53063   0.40351   1.000
    C128    C    0.38765   0.47942   0.37528   1.000
    C129    C    0.63859   0.91502   0.27170   1.000
    C130    C    0.61547   0.83068   0.19210   1.000
    C131    C    0.62931   0.88907   0.19543   1.000
    C132    C    0.88983   0.30101   0.73436   1.000
    C133    C    0.72405   0.18803   0.52743   1.000
    C134    C    0.84497   0.40048   0.35703   1.000
    C135    C    0.84736   0.41162   0.44448   1.000
    C136    C    0.85626   0.40686   0.57475   1.000
    C137    C    0.86701   0.38234   0.65669   1.000
    C138    C    0.63633   0.26214   0.50834   1.000
    C139    C    0.96996   0.04025   0.59874   1.000
    C140    C    0.81449   0.15486   0.54115   1.000
    C141    C    0.92509   0.09316   0.57105   1.000
    C142    C    0.94185   0.95147   0.65515   1.000
    C143    C    0.85465   0.36548   0.23870   1.000
    C144    C    0.04486   0.93900   0.65476   1.000
    C145    C    0.07464   0.03073   0.59655   1.000
    C146    C    0.11232   0.97954   0.62473   1.000
    C147    C    0.86161   0.41518   0.72820   1.000
    C148    C    0.88470   0.33089   0.80783   1.000
    C149    C    0.87086   0.38928   0.80450   1.000
    C150    C    0.61034   0.19916   0.23447   1.000
    C151    C    0.77596   0.31201   0.02738   1.000
    C152    C    0.65505   0.09950   0.85714   1.000
    C153    C    0.65274   0.08840   0.94400   1.000
    C154    C    0.64399   0.09322   0.07487   1.000
    C155    C    0.63319   0.11778   0.15681   1.000
    C156    C    0.86367   0.23788   0.00837   1.000
    C157    C    0.53004   0.45982   0.09875   1.000
    C158    C    0.68551   0.34518   0.04111   1.000
    C159    C    0.57490   0.40690   0.07099   1.000
    C160    C    0.55817   0.54859   0.15528   1.000
    C161    C    0.64517   0.13446   0.73889   1.000
    C162    C    0.45513   0.56108   0.15487   1.000
    C163    C    0.42534   0.46936   0.09653   1.000
    C164    C    0.38766   0.52057   0.12470   1.000
    C165    C    0.63865   0.08499   0.22832   1.000
    C166    C    0.61550   0.16933   0.30795   1.000
    C167    C    0.62936   0.11094   0.30462   1.000
    C168    C    0.11020   0.30100   0.23434   1.000
    C169    C    0.27596   0.18801   0.02742   1.000
    C170    C    0.15505   0.40048   0.85703   1.000
    C171    C    0.15266   0.41162   0.94448   1.000
    C172    C    0.14375   0.40686   0.07474   1.000
    C173    C    0.13300   0.38233   0.15668   1.000
    C174    C    0.36368   0.26212   0.00833   1.000
    C175    C    0.03005   0.04023   0.09875   1.000
    C176    C    0.18552   0.15485   0.04115   1.000
    C177    C    0.07492   0.09314   0.07105   1.000
    C178    C    0.05813   0.95146   0.15510   1.000
    C179    C    0.14538   0.36548   0.73875   1.000
    C180    C    0.95512   0.93898   0.15478   1.000
    C181    C    0.92538   0.03071   0.09656   1.000
    C182    C    0.88767   0.97951   0.12474   1.000
    C183    C    0.13840   0.41517   0.22819   1.000
    C184    C    0.11532   0.33087   0.30782   1.000
    C185    C    0.12916   0.38926   0.30449   1.000
    C186    C    0.38966   0.19917   0.73447   1.000
    C187    C    0.22408   0.31203   0.52730   1.000
    C188    C    0.34495   0.09950   0.35713   1.000
    C189    C    0.34728   0.08840   0.44458   1.000
    C190    C    0.35604   0.09323   0.57487   1.000
    C191    C    0.36684   0.11778   0.65681   1.000
    C192    C    0.13636   0.23789   0.50837   1.000
    C193    C    0.46997   0.45984   0.59875   1.000
    C194    C    0.31452   0.34520   0.54110   1.000
    C195    C    0.42512   0.40692   0.57099   1.000
    C196    C    0.44182   0.54860   0.65528   1.000
    C197    C    0.35484   0.13446   0.23888   1.000
    C198    C    0.54486   0.56110   0.65488   1.000
    C199    C    0.57467   0.46938   0.59655   1.000
    C200    C    0.61234   0.52059   0.62470   1.000
    C201    C    0.36139   0.08499   0.72832   1.000
    C202    C    0.38451   0.16933   0.80794   1.000
    C203    C    0.37067   0.11094   0.80462   1.000
    C204    C    0.11016   0.69900   0.26570   1.000
    C205    C    0.27594   0.81198   0.47262   1.000
    C206    C    0.15503   0.59953   0.64302   1.000
    C207    C    0.15264   0.58839   0.55557   1.000
    C208    C    0.14373   0.59314   0.42530   1.000
    C209    C    0.13299   0.61766   0.34336   1.000
    C210    C    0.36366   0.73787   0.49171   1.000
    C211    C    0.03004   0.95976   0.40131   1.000
    C212    C    0.18551   0.84514   0.45890   1.000
    C213    C    0.07490   0.90684   0.42900   1.000
    C214    C    0.05815   0.04853   0.34490   1.000
    C215    C    0.14535   0.63453   0.76130   1.000
    C216    C    0.95513   0.06100   0.34520   1.000
    C217    C    0.92536   0.96928   0.40350   1.000
    C218    C    0.88768   0.02047   0.37532   1.000
    C219    C    0.13839   0.58483   0.27185   1.000
    C220    C    0.11529   0.66912   0.19222   1.000
    C221    C    0.12914   0.61073   0.19555   1.000
    C222    C    0.38965   0.80084   0.76558   1.000
    C223    C    0.22404   0.68800   0.97267   1.000
    C224    C    0.34494   0.90050   0.14290   1.000
    C225    C    0.34726   0.91161   0.05545   1.000
    C226    C    0.35601   0.90678   0.92518   1.000
    C227    C    0.36680   0.88223   0.84324   1.000
    C228    C    0.13632   0.76213   0.99160   1.000
    C229    C    0.46995   0.54019   0.90131   1.000
    C230    C    0.31448   0.65483   0.95893   1.000
    C231    C    0.42510   0.59311   0.92906   1.000
    C232    C    0.44183   0.45142   0.84478   1.000
    C233    C    0.35482   0.86555   0.26110   1.000
    C234    C    0.54487   0.43893   0.84519   1.000
    C235    C    0.57465   0.53065   0.90352   1.000
    C236    C    0.61234   0.47944   0.87530   1.000
    C237    C    0.36134   0.91502   0.77172   1.000
    C238    C    0.38449   0.83068   0.69210   1.000
    C239    C    0.37062   0.88907   0.69542   1.000
    C240    C    0.73327   0.75499   0.98537   1.000
    C241    C    0.83519   0.53878   0.94148   1.000
    C242    C    0.83006   0.53595   0.02537   1.000
    C243    C    0.86413   0.62548   0.99460   1.000
    C244    C    0.88171   0.67434   0.83995   1.000
    C245    C    0.57171   0.78155   0.98410   1.000
    C246    C    0.62808   0.82990   0.97146   1.000
    C247    C    0.90637   0.82019   0.96433   1.000
    C248    C    0.82491   0.58046   0.27168   1.000
    C249    C    0.82265   0.89991   0.93702   1.000
    C250    C    0.81806   0.55764   0.19454   1.000
    C251    C    0.90455   0.99914   0.87215   1.000
    C252    C    0.97781   0.85980   0.94530   1.000
    C253    C    0.86795   0.64857   0.18172   1.000
    C254    C    0.76668   0.74501   0.48529   1.000
    C255    C    0.66497   0.96116   0.44137   1.000
    C256    C    0.67008   0.96403   0.52528   1.000
    C257    C    0.63598   0.87449   0.49447   1.000
    C258    C    0.61844   0.82555   0.33980   1.000
    C259    C    0.92823   0.71843   0.48425   1.000
    C260    C    0.87187   0.67007   0.47158   1.000
    C261    C    0.59357   0.67978   0.46436   1.000
    C262    C    0.67495   0.91961   0.77100   1.000
    C263    C    0.67729   0.60004   0.43710   1.000
    C264    C    0.68192   0.94240   0.69447   1.000
    C265    C    0.59544   0.50082   0.37209   1.000
    C266    C    0.52214   0.64017   0.44535   1.000
    C267    C    0.63189   0.85149   0.68157   1.000
    C268    C    0.73329   0.24504   0.51400   1.000
    C269    C    0.83520   0.46123   0.55858   1.000
    C270    C    0.83007   0.46406   0.47468   1.000
    C271    C    0.86415   0.37453   0.50546   1.000
    C272    C    0.88174   0.32568   0.66012   1.000
    C273    C    0.57173   0.21847   0.51589   1.000
    C274    C    0.62811   0.17012   0.52850   1.000
    C275    C    0.90639   0.17984   0.53570   1.000
    C276    C    0.82493   0.41955   0.22837   1.000
    C277    C    0.82267   0.10011   0.56303   1.000
    C278    C    0.81808   0.44236   0.30551   1.000
    C279    C    0.90456   0.00088   0.62789   1.000
    C280    C    0.97783   0.14023   0.55473   1.000
    C281    C    0.86799   0.35144   0.31833   1.000
    C282    C    0.76672   0.25498   0.01475   1.000
    C283    C    0.66500   0.03885   0.05867   1.000
    C284    C    0.67010   0.03598   0.97478   1.000
    C285    C    0.63601   0.12551   0.00558   1.000
    C286    C    0.61846   0.17445   0.16020   1.000
    C287    C    0.92827   0.28156   0.01581   1.000
    C288    C    0.87191   0.32992   0.02848   1.000
    C289    C    0.59361   0.32021   0.03569   1.000
    C290    C    0.67496   0.08040   0.72846   1.000
    C291    C    0.67732   0.39995   0.06296   1.000
    C292    C    0.68193   0.05761   0.80558   1.000
    C293    C    0.59545   0.49917   0.12790   1.000
    C294    C    0.52217   0.35982   0.05470   1.000
    C295    C    0.63189   0.14852   0.81849   1.000
    C296    C    0.26672   0.24502   0.01468   1.000
    C297    C    0.16480   0.46123   0.05857   1.000
    C298    C    0.16993   0.46406   0.97468   1.000
    C299    C    0.13587   0.37453   0.00545   1.000
    C300    C    0.11829   0.32567   0.16010   1.000
    C301    C    0.42828   0.21845   0.01580   1.000
    C302    C    0.37191   0.17011   0.02850   1.000
    C303    C    0.09362   0.17982   0.03573   1.000
    C304    C    0.17508   0.41955   0.72837   1.000
    C305    C    0.17734   0.10009   0.06303   1.000
    C306    C    0.18192   0.44237   0.80551   1.000
    C307    C    0.09544   0.00086   0.12790   1.000
    C308    C    0.02218   0.14021   0.05474   1.000
    C309    C    0.13204   0.35144   0.81833   1.000
    C310    C    0.23332   0.25500   0.51475   1.000
    C311    C    0.33502   0.03885   0.55867   1.000
    C312    C    0.32992   0.03598   0.47477   1.000
    C313    C    0.36401   0.12552   0.50558   1.000
    C314    C    0.38154   0.17445   0.66023   1.000
    C315    C    0.07176   0.28157   0.51581   1.000
    C316    C    0.12812   0.32993   0.52847   1.000
    C317    C    0.40642   0.32022   0.53569   1.000
    C318    C    0.32504   0.08040   0.22845   1.000
    C319    C    0.32270   0.39997   0.56295   1.000
    C320    C    0.31808   0.05761   0.30550   1.000
    C321    C    0.40455   0.49918   0.62797   1.000
    C322    C    0.47785   0.35983   0.55470   1.000
    C323    C    0.36811   0.14852   0.31840   1.000
    C324    C    0.26670   0.75497   0.48536   1.000
    C325    C    0.16480   0.53878   0.44147   1.000
    C326    C    0.16993   0.53595   0.52537   1.000
    C327    C    0.13584   0.62547   0.49459   1.000
    C328    C    0.11826   0.67433   0.33994   1.000
    C329    C    0.42826   0.78154   0.48416   1.000
    C330    C    0.37189   0.82989   0.47146   1.000
    C331    C    0.09360   0.82017   0.46432   1.000
    C332    C    0.17506   0.58046   0.77168   1.000
    C333    C    0.17733   0.89990   0.43702   1.000
    C334    C    0.18192   0.55764   0.69454   1.000
    C335    C    0.09543   0.99913   0.37216   1.000
    C336    C    0.02217   0.85977   0.44532   1.000
    C337    C    0.13201   0.64857   0.68172   1.000
    C338    C    0.23328   0.74502   0.98530   1.000
    C339    C    0.33500   0.96116   0.94138   1.000
    C340    C    0.32990   0.96403   0.02527   1.000
    C341    C    0.36399   0.87450   0.99447   1.000
    C342    C    0.38153   0.82556   0.83981   1.000
    C343    C    0.07172   0.71845   0.98424   1.000
    C344    C    0.12809   0.67009   0.97157   1.000
    C345    C    0.40638   0.67980   0.96436   1.000
    C346    C    0.32503   0.91960   0.27159   1.000
    C347    C    0.32267   0.60006   0.93700   1.000
    C348    C    0.31806   0.94240   0.19440   1.000
    C349    C    0.40455   0.50084   0.87208   1.000
    C350    C    0.47782   0.64019   0.94530   1.000
    C351    C    0.36809   0.85149   0.18155   1.000
    O352    O    0.37615   0.28381   0.00484   1.000
    O353    O    0.87613   0.21618   0.00490   1.000
    O354    O    0.11815   0.32760   0.01638   1.000
    O355    O    0.13981   0.39069   0.04010   1.000
    O356    O    0.14426   0.39308   0.97497   1.000
    O357    O    0.61823   0.17243   0.01653   1.000
    O358    O    0.64000   0.10937   0.04023   1.000
    O359    O    0.64437   0.10695   0.97479   1.000
    O360    O    0.31520   0.25357   0.01151   1.000
    O361    O    0.39598   0.24029   0.01207   1.000
    O362    O    0.81520   0.24643   0.01156   1.000
    O363    O    0.89597   0.25972   0.01209   1.000
    O364    O    0.18358   0.26285   0.02099   1.000
    O365    O    0.27134   0.21652   0.02105   1.000
    O366    O    0.77134   0.28350   0.02107   1.000
    O367    O    0.68359   0.23717   0.02112   1.000
    O368    O    0.51437   0.21890   0.02164   1.000
    O369    O    0.40010   0.19428   0.02215   1.000
    O370    O    0.01436   0.28111   0.02156   1.000
    O371    O    0.90009   0.30574   0.02215   1.000
    O372    O    0.33858   0.93782   0.04036   1.000
    O373    O    0.30117   0.99586   0.07305   1.000
    O374    O    0.33245   0.96260   0.98333   1.000
    O375    O    0.83870   0.56217   0.04047   1.000
    O376    O    0.80126   0.50414   0.07310   1.000
    O377    O    0.83262   0.53737   0.98342   1.000
    O378    O    0.09703   0.23024   0.03152   1.000
    O379    O    0.10936   0.30317   0.09370   1.000
    O380    O    0.82393   0.32096   0.02793   1.000
    O381    O    0.73074   0.32859   0.03425   1.000
    O382    O    0.32394   0.17906   0.02796   1.000
    O383    O    0.23074   0.17143   0.03429   1.000
    O384    O    0.59704   0.26978   0.03159   1.000
    O385    O    0.60946   0.19690   0.09384   1.000
    O386    O    0.63956   0.33269   0.03840   1.000
    O387    O    0.55789   0.34001   0.04520   1.000
    O388    O    0.13957   0.16733   0.03844   1.000
    O389    O    0.05790   0.16002   0.04524   1.000
    O390    O    0.68142   0.37257   0.05204   1.000
    O391    O    0.18143   0.12747   0.05209   1.000
    O392    O    0.54853   0.38336   0.06284   1.000
    O393    O    0.04855   0.11668   0.06290   1.000
    O394    O    0.34610   0.90606   0.09918   1.000
    O395    O    0.35562   0.89306   0.02496   1.000
    O396    O    0.84614   0.59396   0.09930   1.000
    O397    O    0.85573   0.60693   0.02509   1.000
    O398    O    0.15427   0.43404   0.06666   1.000
    O399    O    0.16736   0.46264   0.01662   1.000
    O400    O    0.65449   0.06603   0.06677   1.000
    O401    O    0.66755   0.03741   0.01673   1.000
    O402    O    0.62611   0.40343   0.06697   1.000
    O403    O    0.72489   0.43614   0.09190   1.000
    O404    O    0.12613   0.09662   0.06704   1.000
    O405    O    0.22489   0.06389   0.09193   1.000
    O406    O    0.55247   0.43336   0.08487   1.000
    O407    O    0.05249   0.06669   0.08490   1.000
    O408    O    0.40032   0.45310   0.08451   1.000
    O409    O    0.90036   0.04697   0.08457   1.000
    O410    O    0.13838   0.39460   0.11571   1.000
    O411    O    0.63859   0.10550   0.11584   1.000
    O412    O    0.47769   0.46459   0.09764   1.000
    O413    O    0.40650   0.49497   0.11062   1.000
    O414    O    0.97772   0.03547   0.09766   1.000
    O415    O    0.90652   0.00511   0.11065   1.000
    O416    O    0.06275   0.02055   0.11333   1.000
    O417    O    0.56274   0.47949   0.11333   1.000
    O418    O    0.18394   0.01427   0.12436   1.000
    O419    O    0.29525   0.98504   0.15761   1.000
    O420    O    0.29874   0.05404   0.17464   1.000
    O421    O    0.68395   0.48575   0.12437   1.000
    O422    O    0.79526   0.51499   0.15769   1.000
    O423    O    0.79870   0.44594   0.17460   1.000
    O424    O    0.84700   0.97567   0.12351   1.000
    O425    O    0.34699   0.52443   0.12349   1.000
    O426    O    0.42139   0.54083   0.13979   1.000
    O427    O    0.92139   0.95925   0.13976   1.000
    O428    O    0.07679   0.97616   0.14150   1.000
    O429    O    0.57681   0.52388   0.14159   1.000
    O430    O    0.61100   0.81980   0.16290   1.000
    O431    O    0.11084   0.67998   0.16303   1.000
    O432    O    0.63046   0.90149   0.16723   1.000
    O433    O    0.13031   0.59829   0.16736   1.000
    O434    O    0.35651   0.87600   0.16223   1.000
    O435    O    0.33150   0.92145   0.16865   1.000
    O436    O    0.85645   0.62405   0.16237   1.000
    O437    O    0.83150   0.57858   0.16878   1.000
    O438    O    0.00662   0.94522   0.15494   1.000
    O439    O    0.94180   0.91867   0.16607   1.000
    O440    O    0.50665   0.55483   0.15508   1.000
    O441    O    0.44182   0.58140   0.16618   1.000
    O442    O    0.08609   0.93647   0.16664   1.000
    O443    O    0.58613   0.56356   0.16682   1.000
    O444    O    0.12565   0.35400   0.15839   1.000
    O445    O    0.13570   0.39875   0.19244   1.000
    O446    O    0.62582   0.14611   0.15851   1.000
    O447    O    0.63592   0.10138   0.19257   1.000
    O448    O    0.11424   0.31333   0.19722   1.000
    O449    O    0.61440   0.18681   0.19734   1.000
    O450    O    0.36146   0.85852   0.22133   1.000
    O451    O    0.86129   0.64155   0.22151   1.000
    O452    O    0.86096   0.35151   0.21278   1.000
    O453    O    0.36120   0.14841   0.21294   1.000
    O454    O    0.62239   0.85987   0.19377   1.000
    O455    O    0.61290   0.81576   0.22884   1.000
    O456    O    0.12222   0.63993   0.19389   1.000
    O457    O    0.11273   0.68406   0.22896   1.000
    O458    O    0.32155   0.93100   0.23300   1.000
    O459    O    0.82149   0.56905   0.23311   1.000
    O460    O    0.63395   0.90204   0.23357   1.000
    O461    O    0.13376   0.59778   0.23370   1.000
    O462    O    0.14375   0.43780   0.22505   1.000
    O463    O    0.64400   0.06236   0.22520   1.000
    O464    O    0.13378   0.40221   0.26634   1.000
    O465    O    0.63401   0.09796   0.26647   1.000
    O466    O    0.83979   0.39251   0.23354   1.000
    O467    O    0.82151   0.43095   0.26694   1.000
    O468    O    0.33994   0.10743   0.23367   1.000
    O469    O    0.32156   0.06901   0.26698   1.000
    O470    O    0.10433   0.27822   0.23419   1.000
    O471    O    0.60447   0.22194   0.23432   1.000
    O472    O    0.11276   0.31593   0.27108   1.000
    O473    O    0.61292   0.18425   0.27121   1.000
    O474    O    0.86132   0.35846   0.27852   1.000
    O475    O    0.36147   0.14149   0.27864   1.000
    O476    O    0.33993   0.89257   0.26635   1.000
    O477    O    0.36118   0.85159   0.28707   1.000
    O478    O    0.83976   0.60749   0.26649   1.000
    O479    O    0.86093   0.64849   0.28725   1.000
    O480    O    0.60447   0.77806   0.26574   1.000
    O481    O    0.61439   0.81320   0.30269   1.000
    O482    O    0.10430   0.72178   0.26586   1.000
    O483    O    0.11421   0.68667   0.30282   1.000
    O484    O    0.29873   0.94596   0.32541   1.000
    O485    O    0.79868   0.55406   0.32544   1.000
    O486    O    0.64394   0.93765   0.27484   1.000
    O487    O    0.63587   0.89862   0.30747   1.000
    O488    O    0.14374   0.56220   0.27499   1.000
    O489    O    0.13569   0.60125   0.30761   1.000
    O490    O    0.12224   0.36007   0.30616   1.000
    O491    O    0.13033   0.40170   0.33269   1.000
    O492    O    0.62243   0.14013   0.30629   1.000
    O493    O    0.63052   0.09852   0.33282   1.000
    O494    O    0.33152   0.07856   0.33132   1.000
    O495    O    0.29525   0.01497   0.34237   1.000
    O496    O    0.83152   0.42142   0.33127   1.000
    O497    O    0.79527   0.48501   0.34236   1.000
    O498    O    0.11087   0.32002   0.33702   1.000
    O499    O    0.61103   0.18020   0.33715   1.000
    O500    O    0.85648   0.37596   0.33768   1.000
    O501    O    0.35653   0.12401   0.33777   1.000
    O502    O    0.58614   0.43642   0.33321   1.000
    O503    O    0.08611   0.06352   0.33340   1.000
    O504    O    0.44184   0.41859   0.33383   1.000
    O505    O    0.94182   0.08132   0.33396   1.000
    O506    O    0.62580   0.85389   0.34152   1.000
    O507    O    0.60944   0.80310   0.40619   1.000
    O508    O    0.12562   0.64600   0.34165   1.000
    O509    O    0.10933   0.69683   0.40631   1.000
    O510    O    0.63855   0.89450   0.38421   1.000
    O511    O    0.13836   0.60540   0.38433   1.000
    O512    O    0.50665   0.44515   0.34490   1.000
    O513    O    0.57681   0.47611   0.35839   1.000
    O514    O    0.00664   0.05477   0.34505   1.000
    O515    O    0.07679   0.02383   0.35853   1.000
    O516    O    0.42139   0.45916   0.36019   1.000
    O517    O    0.92141   0.04074   0.36026   1.000
    O518    O    0.84616   0.40605   0.40076   1.000
    O519    O    0.34612   0.09395   0.40086   1.000
    O520    O    0.68395   0.51424   0.37565   1.000
    O521    O    0.56274   0.52050   0.38670   1.000
    O522    O    0.18393   0.98573   0.37570   1.000
    O523    O    0.06273   0.97944   0.38674   1.000
    O524    O    0.34699   0.47556   0.37652   1.000
    O525    O    0.40649   0.50502   0.38940   1.000
    O526    O    0.84701   0.02432   0.37655   1.000
    O527    O    0.90652   0.99487   0.38941   1.000
    O528    O    0.72487   0.56385   0.40815   1.000
    O529    O    0.80126   0.49586   0.42694   1.000
    O530    O    0.22487   0.93611   0.40813   1.000
    O531    O    0.30117   0.00415   0.42700   1.000
    O532    O    0.47768   0.53540   0.40241   1.000
    O533    O    0.55245   0.56663   0.41519   1.000
    O534    O    0.97770   0.96452   0.40241   1.000
    O535    O    0.05247   0.93330   0.41516   1.000
    O536    O    0.90034   0.95301   0.41549   1.000
    O537    O    0.40030   0.54689   0.41553   1.000
    O538    O    0.65446   0.93397   0.43328   1.000
    O539    O    0.63997   0.89064   0.45983   1.000
    O540    O    0.15426   0.56596   0.43339   1.000
    O541    O    0.13979   0.60931   0.45995   1.000
    O542    O    0.12611   0.90337   0.43301   1.000
    O543    O    0.04853   0.88331   0.43716   1.000
    O544    O    0.62608   0.59656   0.43309   1.000
    O545    O    0.54850   0.61663   0.43721   1.000
    O546    O    0.18142   0.87252   0.44796   1.000
    O547    O    0.68138   0.62742   0.44803   1.000
    O548    O    0.66752   0.96259   0.48333   1.000
    O549    O    0.16736   0.53736   0.48342   1.000
    O550    O    0.83871   0.43784   0.45958   1.000
    O551    O    0.85576   0.39308   0.47497   1.000
    O552    O    0.33860   0.06219   0.45968   1.000
    O553    O    0.35565   0.10696   0.47508   1.000
    O554    O    0.05789   0.83997   0.45482   1.000
    O555    O    0.55786   0.65998   0.45486   1.000
    O556    O    0.13955   0.83266   0.46161   1.000
    O557    O    0.23072   0.82856   0.46576   1.000
    O558    O    0.63953   0.66730   0.46166   1.000
    O559    O    0.73070   0.67139   0.46582   1.000
    O560    O    0.09700   0.76975   0.46850   1.000
    O561    O    0.59701   0.73022   0.46847   1.000
    O562    O    0.32392   0.82093   0.47204   1.000
    O563    O    0.40008   0.80571   0.47781   1.000
    O564    O    0.82389   0.67903   0.47213   1.000
    O565    O    0.90005   0.69425   0.47792   1.000
    O566    O    0.51435   0.78109   0.47837   1.000
    O567    O    0.68356   0.76283   0.47893   1.000
    O568    O    0.61821   0.82757   0.48352   1.000
    O569    O    0.27132   0.78347   0.47899   1.000
    O570    O    0.01432   0.71888   0.47846   1.000
    O571    O    0.18355   0.73715   0.47902   1.000
    O572    O    0.11812   0.67240   0.48363   1.000
    O573    O    0.77130   0.71649   0.47898   1.000
    O574    O    0.83264   0.46265   0.51663   1.000
    O575    O    0.33247   0.03741   0.51672   1.000
    O576    O    0.39596   0.75971   0.48794   1.000
    O577    O    0.89593   0.74027   0.48797   1.000
    O578    O    0.81515   0.75356   0.48849   1.000
    O579    O    0.31518   0.74642   0.48854   1.000
    O580    O    0.87609   0.78381   0.49514   1.000
    O581    O    0.37613   0.71618   0.49520   1.000
    O582    O    0.64435   0.89305   0.52497   1.000
    O583    O    0.14424   0.60693   0.52508   1.000
    O584    O    0.62387   0.28383   0.50486   1.000
    O585    O    0.12390   0.21620   0.50490   1.000
    O586    O    0.88187   0.32761   0.51638   1.000
    O587    O    0.86021   0.39070   0.54011   1.000
    O588    O    0.38179   0.17244   0.51649   1.000
    O589    O    0.36003   0.10937   0.54023   1.000
    O590    O    0.68481   0.25359   0.51117   1.000
    O591    O    0.60403   0.24030   0.51211   1.000
    O592    O    0.18484   0.24645   0.51156   1.000
    O593    O    0.10406   0.25973   0.51209   1.000
    O594    O    0.81644   0.26286   0.52065   1.000
    O595    O    0.72867   0.21653   0.52072   1.000
    O596    O    0.22870   0.28351   0.52102   1.000
    O597    O    0.31644   0.23718   0.52108   1.000
    O598    O    0.98567   0.28113   0.52155   1.000
    O599    O    0.09994   0.30575   0.52214   1.000
    O600    O    0.48565   0.21891   0.52165   1.000
    O601    O    0.59992   0.19429   0.52220   1.000
    O602    O    0.66140   0.93782   0.54037   1.000
    O603    O    0.69882   0.99586   0.57304   1.000
    O604    O    0.16128   0.56217   0.54047   1.000
    O605    O    0.19873   0.50414   0.57310   1.000
    O606    O    0.90299   0.23026   0.53150   1.000
    O607    O    0.89066   0.30318   0.59371   1.000
    O608    O    0.17610   0.32098   0.52789   1.000
    O609    O    0.26930   0.32861   0.53420   1.000
    O610    O    0.40299   0.26979   0.53155   1.000
    O611    O    0.39055   0.19691   0.59382   1.000
    O612    O    0.67608   0.17908   0.52797   1.000
    O613    O    0.76927   0.17145   0.53429   1.000
    O614    O    0.36047   0.33271   0.53839   1.000
    O615    O    0.44214   0.34003   0.54520   1.000
    O616    O    0.86044   0.16735   0.53843   1.000
    O617    O    0.94211   0.16004   0.54522   1.000
    O618    O    0.31861   0.37258   0.55202   1.000
    O619    O    0.81858   0.12749   0.55209   1.000
    O620    O    0.45149   0.38338   0.56285   1.000
    O621    O    0.95146   0.11670   0.56289   1.000
    O622    O    0.65388   0.90606   0.59918   1.000
    O623    O    0.15384   0.59396   0.59930   1.000
    O624    O    0.84573   0.43405   0.56667   1.000
    O625    O    0.34553   0.06604   0.56677   1.000
    O626    O    0.37391   0.40344   0.56697   1.000
    O627    O    0.27512   0.43615   0.59189   1.000
    O628    O    0.87388   0.09664   0.56704   1.000
    O629    O    0.77512   0.06390   0.59192   1.000
    O630    O    0.44754   0.43338   0.58487   1.000
    O631    O    0.94752   0.06670   0.58490   1.000
    O632    O    0.59969   0.45312   0.58453   1.000
    O633    O    0.09965   0.04700   0.58457   1.000
    O634    O    0.86164   0.39460   0.61572   1.000
    O635    O    0.36144   0.10551   0.61584   1.000
    O636    O    0.52232   0.46461   0.59765   1.000
    O637    O    0.59350   0.49499   0.61063   1.000
    O638    O    0.02230   0.03549   0.59765   1.000
    O639    O    0.09348   0.00513   0.61064   1.000
    O640    O    0.93726   0.02056   0.61332   1.000
    O641    O    0.43726   0.47951   0.61336   1.000
    O642    O    0.81607   0.01428   0.62435   1.000
    O643    O    0.70475   0.98504   0.65764   1.000
    O644    O    0.70127   0.05404   0.67463   1.000
    O645    O    0.31604   0.48576   0.62440   1.000
    O646    O    0.20473   0.51499   0.65768   1.000
    O647    O    0.20131   0.44595   0.67460   1.000
    O648    O    0.15298   0.97569   0.62350   1.000
    O649    O    0.65300   0.52445   0.62350   1.000
    O650    O    0.57860   0.54085   0.63979   1.000
    O651    O    0.07859   0.95927   0.63975   1.000
    O652    O    0.92321   0.97617   0.64152   1.000
    O653    O    0.42318   0.52389   0.64163   1.000
    O654    O    0.38896   0.81981   0.66291   1.000
    O655    O    0.88913   0.67999   0.66302   1.000
    O656    O    0.36946   0.90149   0.66721   1.000
    O657    O    0.86968   0.59831   0.66736   1.000
    O658    O    0.64346   0.87600   0.66224   1.000
    O659    O    0.66848   0.92145   0.66869   1.000
    O660    O    0.14352   0.62405   0.66237   1.000
    O661    O    0.16847   0.57859   0.66878   1.000
    O662    O    0.99335   0.94524   0.65496   1.000
    O663    O    0.05817   0.91869   0.66603   1.000
    O664    O    0.49334   0.55485   0.65508   1.000
    O665    O    0.55815   0.58142   0.66594   1.000
    O666    O    0.91388   0.93649   0.66665   1.000
    O667    O    0.41385   0.56358   0.66681   1.000
    O668    O    0.87438   0.35401   0.65841   1.000
    O669    O    0.86431   0.39876   0.69245   1.000
    O670    O    0.37419   0.14612   0.65852   1.000
    O671    O    0.36411   0.10139   0.69256   1.000
    O672    O    0.88579   0.31334   0.69724   1.000
    O673    O    0.38560   0.18681   0.69735   1.000
    O674    O    0.63852   0.85852   0.72137   1.000
    O675    O    0.13868   0.64155   0.72151   1.000
    O676    O    0.13907   0.35152   0.71280   1.000
    O677    O    0.63881   0.14841   0.71295   1.000
    O678    O    0.37756   0.85987   0.69376   1.000
    O679    O    0.38707   0.81576   0.72884   1.000
    O680    O    0.87776   0.63994   0.69388   1.000
    O681    O    0.88724   0.68408   0.72896   1.000
    O682    O    0.67843   0.93100   0.73274   1.000
    O683    O    0.17849   0.56905   0.73311   1.000
    O684    O    0.36598   0.90204   0.73357   1.000
    O685    O    0.86622   0.59780   0.73371   1.000
    O686    O    0.85626   0.43781   0.72506   1.000
    O687    O    0.35605   0.06236   0.72519   1.000
    O688    O    0.86623   0.40223   0.76635   1.000
    O689    O    0.36603   0.09797   0.76647   1.000
    O690    O    0.16023   0.39252   0.73356   1.000
    O691    O    0.17850   0.43096   0.76694   1.000
    O692    O    0.66006   0.10743   0.73368   1.000
    O693    O    0.67845   0.06901   0.76702   1.000
    O694    O    0.89570   0.27823   0.73418   1.000
    O695    O    0.39552   0.22194   0.73432   1.000
    O696    O    0.88727   0.31595   0.77110   1.000
    O697    O    0.38708   0.18425   0.77121   1.000
    O698    O    0.13871   0.35846   0.77854   1.000
    O699    O    0.63853   0.14149   0.77869   1.000
    O700    O    0.66005   0.89258   0.76609   1.000
    O701    O    0.63880   0.85160   0.78711   1.000
    O702    O    0.16021   0.60750   0.76649   1.000
    O703    O    0.13903   0.64850   0.78725   1.000
    O704    O    0.39552   0.77807   0.76574   1.000
    O705    O    0.38559   0.81320   0.80270   1.000
    O706    O    0.89566   0.72179   0.76586   1.000
    O707    O    0.88575   0.68668   0.80283   1.000
    O708    O    0.70125   0.94597   0.82512   1.000
    O709    O    0.20130   0.55407   0.82545   1.000
    O710    O    0.35599   0.93765   0.77485   1.000
    O711    O    0.36407   0.89862   0.80748   1.000
    O712    O    0.85625   0.56221   0.77500   1.000
    O713    O    0.86430   0.60126   0.80758   1.000
    O714    O    0.87778   0.36008   0.80617   1.000
    O715    O    0.86969   0.40172   0.83270   1.000
    O716    O    0.37759   0.14014   0.80628   1.000
    O717    O    0.36952   0.09852   0.83281   1.000
    O718    O    0.16849   0.42142   0.83127   1.000
    O719    O    0.20473   0.48502   0.84237   1.000
    O720    O    0.66849   0.07856   0.83136   1.000
    O721    O    0.70474   0.01497   0.84241   1.000
    O722    O    0.88916   0.32003   0.83703   1.000
    O723    O    0.38898   0.18020   0.83714   1.000
    O724    O    0.14355   0.37596   0.83768   1.000
    O725    O    0.64347   0.12401   0.83782   1.000
    O726    O    0.41386   0.43644   0.83325   1.000
    O727    O    0.91390   0.06353   0.83338   1.000
    O728    O    0.55817   0.41861   0.83389   1.000
    O729    O    0.05819   0.08134   0.83398   1.000
    O730    O    0.37417   0.85389   0.84153   1.000
    O731    O    0.39053   0.80311   0.90619   1.000
    O732    O    0.87435   0.64601   0.84163   1.000
    O733    O    0.89063   0.69684   0.90632   1.000
    O734    O    0.36140   0.89451   0.88421   1.000
    O735    O    0.86162   0.60541   0.88431   1.000
    O736    O    0.49335   0.44517   0.84499   1.000
    O737    O    0.42319   0.47613   0.85843   1.000
    O738    O    0.99337   0.05479   0.84508   1.000
    O739    O    0.92321   0.02385   0.85852   1.000
    O740    O    0.57860   0.45918   0.86025   1.000
    O741    O    0.07860   0.04076   0.86029   1.000
    O742    O    0.15386   0.40605   0.90076   1.000
    O743    O    0.65389   0.09395   0.90057   1.000
    O744    O    0.31604   0.51426   0.87565   1.000
    O745    O    0.43725   0.52051   0.88670   1.000
    O746    O    0.81605   0.98574   0.87569   1.000
    O747    O    0.93724   0.97946   0.88673   1.000
    O748    O    0.65300   0.47558   0.87654   1.000
    O749    O    0.59350   0.50504   0.88941   1.000
    O750    O    0.15300   0.02434   0.87651   1.000
    O751    O    0.09347   0.99490   0.88940   1.000
    O752    O    0.27510   0.56387   0.90811   1.000
    O753    O    0.19873   0.49587   0.92695   1.000
    O754    O    0.77510   0.93612   0.90813   1.000
    O755    O    0.69883   0.00415   0.92701   1.000
    O756    O    0.02228   0.96454   0.90240   1.000
    O757    O    0.94751   0.93332   0.91515   1.000
    O758    O    0.52230   0.53542   0.90242   1.000
    O759    O    0.44752   0.56665   0.91519   1.000
    O760    O    0.09963   0.95303   0.91548   1.000
    O761    O    0.59967   0.54691   0.91554   1.000
    O762    O    0.34550   0.93397   0.93328   1.000
    O763    O    0.36000   0.89064   0.95983   1.000
    O764    O    0.84572   0.56597   0.93340   1.000
    O765    O    0.86019   0.60932   0.95996   1.000
    O766    O    0.87386   0.90339   0.93301   1.000
    O767    O    0.95144   0.88333   0.93715   1.000
    O768    O    0.37389   0.59658   0.93303   1.000
    O769    O    0.45146   0.61665   0.93718   1.000
    O770    O    0.31858   0.62744   0.94797   1.000
    O771    O    0.81856   0.87254   0.94797   1.000
    O772    O    0.66142   0.06219   0.95939   1.000
    O773    O    0.16130   0.43784   0.95958   1.000
    O774    O    0.44210   0.66000   0.95483   1.000
    O775    O    0.94209   0.83999   0.95482   1.000
    O776    O    0.86042   0.83268   0.96162   1.000
    O777    O    0.76925   0.82858   0.96577   1.000
    O778    O    0.36043   0.66732   0.96165   1.000
    O779    O    0.26926   0.67141   0.96580   1.000
    O780    O    0.90296   0.76976   0.96851   1.000
    O781    O    0.40296   0.73023   0.96847   1.000
    O782    O    0.67606   0.82095   0.97204   1.000
    O783    O    0.59990   0.80573   0.97778   1.000
    O784    O    0.17606   0.67905   0.97212   1.000
    O785    O    0.09990   0.69427   0.97791   1.000
    O786    O    0.48562   0.78111   0.97834   1.000
    O787    O    0.31641   0.76284   0.97894   1.000
    O788    O    0.38176   0.82758   0.98352   1.000
    O789    O    0.72865   0.78349   0.97900   1.000
    O790    O    0.22866   0.71651   0.97899   1.000
    O791    O    0.98564   0.71889   0.97846   1.000
    O792    O    0.81641   0.73716   0.97903   1.000
    O793    O    0.88184   0.67241   0.98364   1.000
    O794    O    0.60401   0.75972   0.98791   1.000
    O795    O    0.10402   0.74029   0.98792   1.000
    O796    O    0.18480   0.75358   0.98845   1.000
    O797    O    0.68479   0.74644   0.98855   1.000
    O798    O    0.12386   0.78383   0.99512   1.000
    O799    O    0.62385   0.71619   0.99521   1.000
loop_
    _geom_bond_atom_site_label_1
    _geom_bond_atom_site_label_2
    _geom_bond_distance
    _geom_bond_site_symmetry_2
    _ccdc_geom_bond_type
    C57    O352      0.54298      .   S
    C174   O352      0.54298      .   S
    C47    O353      0.54298      .   S
    C156   O353      0.54298      .   S
    C299   O354      1.15072      .   S
    C8     O354      1.15072      .   S
    C299   O355      0.68338      .   S
    C172   O355      0.68338      .   S
    C299   O356      0.67210  1_554   S
    C171   O356      0.67210      .   S
    C285   O357      1.15061      .   S
    C6     O357      1.15061      .   S
    C285   O358      0.68341      .   S
    C154   O358      0.68341      .   S
    C285   O359      0.67560  1_554   S
    C153   O359      0.67560      .   S
    C174   O360      0.67331      .   S
    C296   O360      0.67331      .   S
    C174   O361      0.67336      .   S
    C301   O361      0.67336      .   S
    C156   O362      0.67329      .   S
    C282   O362      0.67329      .   S
    C156   O363      0.67343      .   S
    C287   O363      0.67343      .   S
    C296   O364      1.18052      .   S
    C8     O364      1.18052      .   S
    C296   O365      0.68640      .   S
    C169   O365      0.68640      .   S
    C282   O366      0.68639      .   S
    C151   O366      0.68639      .   S
    C282   O367      1.18042      .   S
    C6     O367      1.18042      .   S
    C301   O368      1.14048      .   S
    C6     O368      1.14048      .   S
    C301   O369      0.69106      .   S
    C302   O369      0.69106      .   S
    C287   O370      1.14027  1_655   S
    C8     O370      1.14027      .   S
    C287   O371      0.69108      .   S
    C288   O371      0.69108      .   S
    C340   O372      0.67792      .   S
    C225   O372      0.67792      .   S
    C340   O373      1.14739      .   S
    C15    O373      1.14739  1_545   S
    C340   O374      0.68398  1_554   S
    C339   O374      0.68398      .   S
    C242   O375      0.67792      .   S
    C99    O375      0.67792      .   S
    C242   O376      1.14735      .   S
    C1     O376      1.14735      .   S
    C242   O377      0.68400  1_554   S
    C241   O377      0.68400      .   S
    C8     O378      1.19830      .   S
    C303   O378      1.19830      .   S
    C8     O379      1.21020      .   S
    C300   O379      1.21020      .   S
    C151   O380      0.66801      .   S
    C288   O380      0.66801      .   S
    C151   O381      0.72347      .   S
    C158   O381      0.72347      .   S
    C169   O382      0.66799      .   S
    C302   O382      0.66799      .   S
    C169   O383      0.72344      .   S
    C176   O383      0.72344      .   S
    C6     O384      1.19816      .   S
    C289   O384      1.19816      .   S
    C6     O385      1.20961      .   S
    C286   O385      1.20961      .   S
    C289   O386      0.67642      .   S
    C158   O386      0.67642      .   S
    C289   O387      0.68311      .   S
    C294   O387      0.68311      .   S
    C303   O388      0.67642      .   S
    C176   O388      0.67642      .   S
    C303   O389      0.68312      .   S
    C308   O389      0.68312      .   S
    C158   O390      0.67521      .   S
    C291   O390      0.67521      .   S
    C176   O391      0.67521      .   S
    C305   O391      0.67521      .   S
    C294   O392      0.67090      .   S
    C159   O392      0.67090      .   S
    C308   O393      0.67090      .   S
    C177   O393      0.67090      .   S
    C225   O394      0.72357      .   S
    C224   O394      0.72357      .   S
    C225   O395      0.67199      .   S
    C341   O395      0.67199  1_556   S
    C99    O396      0.72356      .   S
    C98    O396      0.72356      .   S
    C99    O397      0.67209      .   S
    C243   O397      0.67209  1_556   S
    C297   O398      0.67230      .   S
    C172   O398      0.67230      .   S
    C297   O399      0.68400      .   S
    C298   O399      0.68400  1_556   S
    C283   O400      0.67229      .   S
    C154   O400      0.67229      .   S
    C283   O401      0.68398      .   S
    C284   O401      0.68398  1_556   S
    C291   O402      0.68417      .   S
    C159   O402      0.68417      .   S
    C291   O403      1.16263      .   S
    C1     O403      1.16263      .   S
    C305   O404      0.68417      .   S
    C177   O404      0.68417      .   S
    C305   O405      1.16279      .   S
    C15    O405      1.16279      .   S
    C159   O406      0.72937      .   S
    C157   O406      0.72937      .   S
    C177   O407      0.72939      .   S
    C175   O407      0.72939      .   S
    C51    O408      0.54397      .   S
    C163   O408      0.54397      .   S
    C61    O409      0.54397      .   S
    C181   O409      0.54397      .   S
    C172   O410      0.73064      .   S
    C173   O410      0.73064      .   S
    C154   O411      0.73063      .   S
    C155   O411      0.73063      .   S
    C163   O412      0.70053      .   S
    C157   O412      0.70053      .   S
    C163   O413      0.69476      .   S
    C164   O413      0.69476      .   S
    C181   O414      0.70032      .   S
    C175   O414      0.70032  1_455   S
    C181   O415      0.69486      .   S
    C182   O415      0.69486  1_565   S
    C175   O416      0.67845      .   S
    C307   O416      0.67845      .   S
    C157   O417      0.67825      .   S
    C293   O417      0.67825      .   S
    C15    O418      1.21209      .   S
    C307   O418      1.21209      .   S
    C15    O419      1.21293  1_545   S
    C348   O419      1.21293      .   S
    C15    O420      1.13009      .   S
    C318   O420      1.13009      .   S
    C1     O421      1.21227      .   S
    C293   O421      1.21227      .   S
    C1     O422      1.21331      .   S
    C250   O422      1.21331      .   S
    C1     O423      1.13005      .   S
    C276   O423      1.13005      .   S
    C62    O424      0.54491      .   S
    C182   O424      0.54491      .   S
    C52    O425      0.54489      .   S
    C164   O425      0.54489      .   S
    C164   O426      0.69931      .   S
    C162   O426      0.69931      .   S
    C182   O427      0.69916      .   S
    C180   O427      0.69916      .   S
    C307   O428      0.67283  1_545   S
    C178   O428      0.67283      .   S
    C293   O429      0.67320      .   S
    C160   O429      0.67320      .   S
    C34    O430      0.54348      .   S
    C130   O430      0.54348      .   S
    C84    O431      0.54345      .   S
    C220   O431      0.54345      .   S
    C35    O432      0.54545      .   S
    C131   O432      0.54545      .   S
    C85    O433      0.54541      .   S
    C221   O433      0.54541      .   S
    C224   O434      0.67815      .   S
    C351   O434      0.67815      .   S
    C224   O435      0.67331      .   S
    C348   O435      0.67331      .   S
    C98    O436      0.67817      .   S
    C253   O436      0.67817      .   S
    C98    O437      0.67362      .   S
    C250   O437      0.67362      .   S
    C180   O438      0.69583  1_655   S
    C178   O438      0.69583      .   S
    C180   O439      0.54455      .   S
    C60    O439      0.54455      .   S
    C162   O440      0.69607      .   S
    C160   O440      0.69607      .   S
    C162   O441      0.54457      .   S
    C50    O441      0.54457      .   S
    C178   O442      0.54564      .   S
    C58    O442      0.54564      .   S
    C160   O443      0.54545      .   S
    C48    O443      0.54545      .   S
    C173   O444      0.67928      .   S
    C300   O444      0.67928      .   S
    C173   O445      0.70059      .   S
    C183   O445      0.70059      .   S
    C155   O446      0.67927      .   S
    C286   O446      0.67927      .   S
    C155   O447      0.70060      .   S
    C165   O447      0.70060      .   S
    C300   O448      0.67315      .   S
    C168   O448      0.67315      .   S
    C286   O449      0.67339      .   S
    C150   O449      0.67339      .   S
    C351   O450      0.67377      .   S
    C233   O450      0.67377      .   S
    C253   O451      0.67415      .   S
    C107   O451      0.67415      .   S
    C39    O452      0.54246      .   S
    C143   O452      0.54246      .   S
    C69    O453      0.54279      .   S
    C197   O453      0.54279      .   S
    C130   O454      0.69864      .   S
    C131   O454      0.69864      .   S
    C130   O455      0.69540      .   S
    C114   O455      0.69540      .   S
    C220   O456      0.69866      .   S
    C221   O456      0.69866      .   S
    C220   O457      0.69542      .   S
    C204   O457      0.69542      .   S
    C348   O458      0.68515      .   S
    C346   O458      0.68515      .   S
    C250   O459      0.68463      .   S
    C248   O459      0.68463      .   S
    C131   O460      0.69501      .   S
    C129   O460      0.69501      .   S
    C221   O461      0.69518      .   S
    C219   O461      0.69518      .   S
    C63    O462      0.54359      .   S
    C183   O462      0.54359      .   S
    C53    O463      0.54358      .   S
    C165   O463      0.54358      .   S
    C183   O464      0.69518      .   S
    C185   O464      0.69518      .   S
    C165   O465      0.69522      .   S
    C167   O465      0.69522      .   S
    C276   O466      0.67554      .   S
    C143   O466      0.67554      .   S
    C276   O467      0.68463      .   S
    C278   O467      0.68463      .   S
    C318   O468      0.67558      .   S
    C197   O468      0.67558      .   S
    C318   O469      0.68410      .   S
    C320   O469      0.68410      .   S
    C56    O470      0.54550      .   S
    C168   O470      0.54550      .   S
    C46    O471      0.54550      .   S
    C150   O471      0.54550      .   S
    C168   O472      0.69541      .   S
    C184   O472      0.69541      .   S
    C150   O473      0.69540      .   S
    C166   O473      0.69540      .   S
    C143   O474      0.67454      .   S
    C281   O474      0.67454      .   S
    C197   O475      0.67356      .   S
    C323   O475      0.67356      .   S
    C233   O476      0.67564      .   S
    C346   O476      0.67564      .   S
    C233   O477      0.54312      .   S
    C89    O477      0.54312      .   S
    C107   O478      0.67559      .   S
    C248   O478      0.67559      .   S
    C107   O479      0.54278      .   S
    C19    O479      0.54278      .   S
    C114   O480      0.54551      .   S
    C26    O480      0.54551      .   S
    C114   O481      0.67303      .   S
    C258   O481      0.67303      .   S
    C204   O482      0.54550      .   S
    C76    O482      0.54550      .   S
    C204   O483      0.67315      .   S
    C328   O483      0.67315      .   S
    C346   O484      1.13009      .   S
    C11    O484      1.13009      .   S
    C248   O485      1.12987      .   S
    C5     O485      1.12987      .   S
    C129   O486      0.54361      .   S
    C33    O486      0.54361      .   S
    C129   O487      0.70081      .   S
    C119   O487      0.70081      .   S
    C219   O488      0.54359      .   S
    C83    O488      0.54359      .   S
    C219   O489      0.70060      .   S
    C209   O489      0.70060      .   S
    C185   O490      0.69866      .   S
    C184   O490      0.69866      .   S
    C185   O491      0.54540      .   S
    C65    O491      0.54540      .   S
    C167   O492      0.69865      .   S
    C166   O492      0.69865      .   S
    C167   O493      0.54545      .   S
    C55    O493      0.54545      .   S
    C320   O494      0.67400      .   S
    C188   O494      0.67400      .   S
    C320   O495      1.21359      .   S
    C11    O495      1.21359  1_565   S
    C278   O496      0.67363      .   S
    C134   O496      0.67363      .   S
    C278   O497      1.21320      .   S
    C5     O497      1.21320      .   S
    C184   O498      0.54345      .   S
    C64    O498      0.54345      .   S
    C166   O499      0.54346      .   S
    C54    O499      0.54346      .   S
    C281   O500      0.67817      .   S
    C134   O500      0.67817      .   S
    C323   O501      0.67844      .   S
    C188   O501      0.67844      .   S
    C28    O502      0.54523      .   S
    C124   O502      0.54523      .   S
    C78    O503      0.54546      .   S
    C214   O503      0.54546      .   S
    C30    O504      0.54438      .   S
    C126   O504      0.54438      .   S
    C80    O505      0.54433      .   S
    C216   O505      0.54433      .   S
    C258   O506      0.67929      .   S
    C119   O506      0.67929      .   S
    C258   O507      1.20997      .   S
    C2     O507      1.20997      .   S
    C328   O508      0.67928      .   S
    C209   O508      0.67928      .   S
    C328   O509      1.20967      .   S
    C12    O509      1.20967      .   S
    C119   O510      0.73064      .   S
    C118   O510      0.73064      .   S
    C209   O511      0.73065      .   S
    C208   O511      0.73065      .   S
    C124   O512      0.69607      .   S
    C126   O512      0.69607      .   S
    C124   O513      0.67322      .   S
    C265   O513      0.67322      .   S
    C214   O514      0.69583      .   S
    C216   O514      0.69583  1_655   S
    C214   O515      0.67292      .   S
    C335   O515      0.67292  1_565   S
    C126   O516      0.69937      .   S
    C128   O516      0.69937      .   S
    C216   O517      0.69940      .   S
    C218   O517      0.69940      .   S
    C134   O518      0.72356      .   S
    C135   O518      0.72356      .   S
    C188   O519      0.72357      .   S
    C189   O519      0.72357      .   S
    C265   O520      1.21228      .   S
    C5     O520      1.21228      .   S
    C265   O521      0.67844      .   S
    C121   O521      0.67844      .   S
    C335   O522      1.21203      .   S
    C11    O522      1.21203      .   S
    C335   O523      0.67845      .   S
    C211   O523      0.67845      .   S
    C128   O524      0.54491      .   S
    C32    O524      0.54491      .   S
    C128   O525      0.69489      .   S
    C127   O525      0.69489      .   S
    C218   O526      0.54492      .   S
    C82    O526      0.54492      .   S
    C218   O527      0.69479  1_545   S
    C217   O527      0.69479      .   S
    C5     O528      1.16268      .   S
    C263   O528      1.16268      .   S
    C5     O529      1.14747      .   S
    C270   O529      1.14747      .   S
    C11    O530      1.16285      .   S
    C333   O530      1.16285      .   S
    C11    O531      1.14750  1_565   S
    C312   O531      1.14750      .   S
    C121   O532      0.70053      .   S
    C127   O532      0.70053      .   S
    C121   O533      0.72938      .   S
    C123   O533      0.72938      .   S
    C211   O534      0.70032  1_455   S
    C217   O534      0.70032      .   S
    C211   O535      0.72936      .   S
    C213   O535      0.72936      .   S
    C217   O536      0.54394      .   S
    C81    O536      0.54394      .   S
    C127   O537      0.54397      .   S
    C31    O537      0.54397      .   S
    C118   O538      0.67229      .   S
    C255   O538      0.67229      .   S
    C118   O539      0.68340      .   S
    C257   O539      0.68340      .   S
    C208   O540      0.67229      .   S
    C325   O540      0.67229      .   S
    C208   O541      0.68338      .   S
    C327   O541      0.68338      .   S
    C213   O542      0.68418      .   S
    C333   O542      0.68418      .   S
    C213   O543      0.67092      .   S
    C336   O543      0.67092      .   S
    C123   O544      0.68417      .   S
    C263   O544      0.68417      .   S
    C123   O545      0.67090      .   S
    C266   O545      0.67090      .   S
    C333   O546      0.67523      .   S
    C212   O546      0.67523      .   S
    C263   O547      0.67520      .   S
    C122   O547      0.67520      .   S
    C255   O548      0.68415      .   S
    C256   O548      0.68415      .   S
    C325   O549      0.68408      .   S
    C326   O549      0.68408      .   S
    C135   O550      0.67792      .   S
    C270   O550      0.67792      .   S
    C135   O551      0.67213      .   S
    C271   O551      0.67213      .   S
    C189   O552      0.67793      .   S
    C312   O552      0.67793      .   S
    C189   O553      0.67216      .   S
    C313   O553      0.67216      .   S
    C336   O554      0.68311      .   S
    C331   O554      0.68311      .   S
    C266   O555      0.68311      .   S
    C261   O555      0.68311      .   S
    C212   O556      0.67642      .   S
    C331   O556      0.67642      .   S
    C212   O557      0.72344      .   S
    C205   O557      0.72344      .   S
    C122   O558      0.67642      .   S
    C261   O558      0.67642      .   S
    C122   O559      0.72348      .   S
    C115   O559      0.72348      .   S
    C331   O560      1.19818      .   S
    C12    O560      1.19818      .   S
    C261   O561      1.19827      .   S
    C2     O561      1.19827      .   S
    C330   O562      0.66801      .   S
    C205   O562      0.66801      .   S
    C330   O563      0.69107      .   S
    C329   O563      0.69107      .   S
    C260   O564      0.66800      .   S
    C115   O564      0.66800      .   S
    C260   O565      0.69108      .   S
    C259   O565      0.69108      .   S
    C2     O566      1.14039      .   S
    C329   O566      1.14039      .   S
    C2     O567      1.18035      .   S
    C254   O567      1.18035      .   S
    C2     O568      1.15065      .   S
    C257   O568      1.15065      .   S
    C205   O569      0.68640      .   S
    C324   O569      0.68640      .   S
    C12    O570      1.14037      .   S
    C259   O570      1.14037  1_655   S
    C12    O571      1.18065      .   S
    C324   O571      1.18065      .   S
    C12    O572      1.15076      .   S
    C327   O572      1.15076      .   S
    C115   O573      0.68638      .   S
    C254   O573      0.68638      .   S
    C270   O574      0.68408      .   S
    C269   O574      0.68408      .   S
    C312   O575      0.68407      .   S
    C311   O575      0.68407      .   S
    C329   O576      0.67342      .   S
    C210   O576      0.67342      .   S
    C259   O577      0.67343      .   S
    C120   O577      0.67343      .   S
    C254   O578      0.67330      .   S
    C120   O578      0.67330      .   S
    C324   O579      0.67331      .   S
    C210   O579      0.67331      .   S
    C120   O580      0.54296      .   S
    C27    O580      0.54296      .   S
    C210   O581      0.54298      .   S
    C77    O581      0.54298      .   S
    C257   O582      0.67210      .   S
    C117   O582      0.67210      .   S
    C327   O583      0.67212      .   S
    C207   O583      0.67212      .   S
    C37    O584      0.54297      .   S
    C138   O584      0.54297      .   S
    C67    O585      0.54297      .   S
    C192   O585      0.54297      .   S
    C271   O586      1.15066      .   S
    C4     O586      1.15066      .   S
    C271   O587      0.68339      .   S
    C136   O587      0.68339      .   S
    C313   O588      1.15055      .   S
    C10    O588      1.15055      .   S
    C313   O589      0.68340      .   S
    C190   O589      0.68340      .   S
    C138   O590      0.67290      .   S
    C268   O590      0.67290      .   S
    C138   O591      0.67344      .   S
    C273   O591      0.67344      .   S
    C192   O592      0.67330      .   S
    C310   O592      0.67330      .   S
    C192   O593      0.67343      .   S
    C315   O593      0.67343      .   S
    C268   O594      1.18109      .   S
    C4     O594      1.18109      .   S
    C268   O595      0.68727      .   S
    C133   O595      0.68727      .   S
    C310   O596      0.68630      .   S
    C187   O596      0.68630      .   S
    C310   O597      1.18029      .   S
    C10    O597      1.18029      .   S
    C315   O598      1.14031  1_455   S
    C4     O598      1.14031      .   S
    C315   O599      0.69107      .   S
    C316   O599      0.69107      .   S
    C273   O600      1.14034      .   S
    C10    O600      1.14034      .   S
    C273   O601      0.69096      .   S
    C274   O601      0.69096      .   S
    C256   O602      0.67791      .   S
    C117   O602      0.67791      .   S
    C256   O603      1.14738      .   S
    C3     O603      1.14738  1_545   S
    C326   O604      0.67793      .   S
    C207   O604      0.67793      .   S
    C326   O605      1.14735      .   S
    C13    O605      1.14735      .   S
    C4     O606      1.19817      .   S
    C275   O606      1.19817      .   S
    C4     O607      1.21033      .   S
    C272   O607      1.21033      .   S
    C187   O608      0.66802      .   S
    C316   O608      0.66802      .   S
    C187   O609      0.72357      .   S
    C194   O609      0.72357      .   S
    C10    O610      1.19830      .   S
    C317   O610      1.19830      .   S
    C10    O611      1.21041      .   S
    C314   O611      1.21041      .   S
    C133   O612      0.66799      .   S
    C274   O612      0.66799      .   S
    C133   O613      0.72345      .   S
    C140   O613      0.72345      .   S
    C317   O614      0.67642      .   S
    C194   O614      0.67642      .   S
    C317   O615      0.68311      .   S
    C322   O615      0.68311      .   S
    C275   O616      0.67644      .   S
    C140   O616      0.67644      .   S
    C275   O617      0.68317      .   S
    C280   O617      0.68317      .   S
    C194   O618      0.67520      .   S
    C319   O618      0.67520      .   S
    C140   O619      0.67521      .   S
    C277   O619      0.67521      .   S
    C322   O620      0.67091      .   S
    C195   O620      0.67091      .   S
    C280   O621      0.67091      .   S
    C141   O621      0.67091      .   S
    C117   O622      0.72349      .   S
    C116   O622      0.72349      .   S
    C207   O623      0.72356      .   S
    C206   O623      0.72356      .   S
    C269   O624      0.67229      .   S
    C136   O624      0.67229      .   S
    C311   O625      0.67231      .   S
    C190   O625      0.67231      .   S
    C319   O626      0.68417      .   S
    C195   O626      0.68417      .   S
    C319   O627      1.16261      .   S
    C13    O627      1.16261      .   S
    C277   O628      0.68417      .   S
    C141   O628      0.68417      .   S
    C277   O629      1.16279      .   S
    C3     O629      1.16279      .   S
    C195   O630      0.72935      .   S
    C193   O630      0.72935      .   S
    C141   O631      0.72939      .   S
    C139   O631      0.72939      .   S
    C71    O632      0.54399      .   S
    C199   O632      0.54399      .   S
    C41    O633      0.54395      .   S
    C145   O633      0.54395      .   S
    C136   O634      0.73064      .   S
    C137   O634      0.73064      .   S
    C190   O635      0.73063      .   S
    C191   O635      0.73063      .   S
    C199   O636      0.70053      .   S
    C193   O636      0.70053      .   S
    C199   O637      0.69468      .   S
    C200   O637      0.69468      .   S
    C145   O638      0.70032      .   S
    C139   O638      0.70032  1_655   S
    C145   O639      0.69480      .   S
    C146   O639      0.69480  1_565   S
    C139   O640      0.67846      .   S
    C279   O640      0.67846      .   S
    C193   O641      0.67847      .   S
    C321   O641      0.67847      .   S
    C3     O642      1.21206      .   S
    C279   O642      1.21206      .   S
    C3     O643      1.21334  1_545   S
    C264   O643      1.21334      .   S
    C3     O644      1.13022      .   S
    C290   O644      1.13022      .   S
    C13    O645      1.21228      .   S
    C321   O645      1.21228      .   S
    C13    O646      1.21328      .   S
    C334   O646      1.21328      .   S
    C13    O647      1.12999      .   S
    C304   O647      1.12999      .   S
    C42    O648      0.54491      .   S
    C146   O648      0.54491      .   S
    C72    O649      0.54488      .   S
    C200   O649      0.54488      .   S
    C200   O650      0.69936      .   S
    C198   O650      0.69936      .   S
    C146   O651      0.69914      .   S
    C144   O651      0.69914      .   S
    C279   O652      0.67292  1_545   S
    C142   O652      0.67292      .   S
    C321   O653      0.67300      .   S
    C196   O653      0.67300      .   S
    C94    O654      0.54347      .   S
    C238   O654      0.54347      .   S
    C24    O655      0.54325      .   S
    C112   O655      0.54325      .   S
    C95    O656      0.54558      .   S
    C239   O656      0.54558      .   S
    C25    O657      0.54540      .   S
    C113   O657      0.54540      .   S
    C116   O658      0.67822      .   S
    C267   O658      0.67822      .   S
    C116   O659      0.67370      .   S
    C264   O659      0.67370      .   S
    C206   O660      0.67817      .   S
    C337   O660      0.67817      .   S
    C206   O661      0.67362      .   S
    C334   O661      0.67362      .   S
    C144   O662      0.69583  1_455   S
    C142   O662      0.69583      .   S
    C144   O663      0.54448      .   S
    C40    O663      0.54448      .   S
    C198   O664      0.69607      .   S
    C196   O664      0.69607      .   S
    C198   O665      0.54323      .   S
    C70    O665      0.54323      .   S
    C142   O666      0.54545      .   S
    C38    O666      0.54545      .   S
    C196   O667      0.54545      .   S
    C68    O667      0.54545      .   S
    C137   O668      0.67928      .   S
    C272   O668      0.67928      .   S
    C137   O669      0.70061      .   S
    C147   O669      0.70061      .   S
    C191   O670      0.67929      .   S
    C314   O670      0.67929      .   S
    C191   O671      0.70060      .   S
    C201   O671      0.70060      .   S
    C272   O672      0.67314      .   S
    C132   O672      0.67314      .   S
    C314   O673      0.67317      .   S
    C186   O673      0.67317      .   S
    C267   O674      0.67418      .   S
    C125   O674      0.67418      .   S
    C337   O675      0.67415      .   S
    C215   O675      0.67415      .   S
    C59    O676      0.54278      .   S
    C179   O676      0.54278      .   S
    C49    O677      0.54280      .   S
    C161   O677      0.54280      .   S
    C238   O678      0.69865      .   S
    C239   O678      0.69865      .   S
    C238   O679      0.69540      .   S
    C222   O679      0.69540      .   S
    C112   O680      0.69867      .   S
    C113   O680      0.69867      .   S
    C112   O681      0.69562      .   S
    C96    O681      0.69562      .   S
    C264   O682      0.68022      .   S
    C262   O682      0.68022      .   S
    C334   O683      0.68463      .   S
    C332   O683      0.68463      .   S
    C239   O684      0.69523      .   S
    C237   O684      0.69523      .   S
    C113   O685      0.69518      .   S
    C111   O685      0.69518      .   S
    C43    O686      0.54359      .   S
    C147   O686      0.54359      .   S
    C73    O687      0.54358      .   S
    C201   O687      0.54358      .   S
    C147   O688      0.69517      .   S
    C149   O688      0.69517      .   S
    C201   O689      0.69523      .   S
    C203   O689      0.69523      .   S
    C304   O690      0.67559      .   S
    C179   O690      0.67559      .   S
    C304   O691      0.68463      .   S
    C306   O691      0.68463      .   S
    C290   O692      0.67558      .   S
    C161   O692      0.67558      .   S
    C290   O693      0.68463      .   S
    C292   O693      0.68463      .   S
    C36    O694      0.54550      .   S
    C132   O694      0.54550      .   S
    C66    O695      0.54550      .   S
    C186   O695      0.54550      .   S
    C132   O696      0.69535      .   S
    C148   O696      0.69535      .   S
    C186   O697      0.69533      .   S
    C202   O697      0.69533      .   S
    C179   O698      0.67415      .   S
    C309   O698      0.67415      .   S
    C161   O699      0.67417      .   S
    C295   O699      0.67417      .   S
    C125   O700      0.67500      .   S
    C262   O700      0.67500      .   S
    C125   O701      0.54278      .   S
    C29    O701      0.54278      .   S
    C215   O702      0.67559      .   S
    C332   O702      0.67559      .   S
    C215   O703      0.54277      .   S
    C79    O703      0.54277      .   S
    C222   O704      0.54550      .   S
    C86    O704      0.54550      .   S
    C222   O705      0.67310      .   S
    C342   O705      0.67310      .   S
    C96    O706      0.54550      .   S
    C16    O706      0.54550      .   S
    C96    O707      0.67315      .   S
    C244   O707      0.67315      .   S
    C262   O708      1.13387      .   S
    C7     O708      1.13387      .   S
    C332   O709      1.13004      .   S
    C9     O709      1.13004      .   S
    C237   O710      0.54360      .   S
    C93    O710      0.54360      .   S
    C237   O711      0.70066      .   S
    C227   O711      0.70066      .   S
    C111   O712      0.54359      .   S
    C23    O712      0.54359      .   S
    C111   O713      0.70012      .   S
    C101   O713      0.70012      .   S
    C149   O714      0.69866      .   S
    C148   O714      0.69866      .   S
    C149   O715      0.54542      .   S
    C45    O715      0.54542      .   S
    C203   O716      0.69864      .   S
    C202   O716      0.69864      .   S
    C203   O717      0.54532      .   S
    C75    O717      0.54532      .   S
    C306   O718      0.67361      .   S
    C170   O718      0.67361      .   S
    C306   O719      1.21330      .   S
    C9     O719      1.21330      .   S
    C292   O720      0.67361      .   S
    C152   O720      0.67361      .   S
    C292   O721      1.21322      .   S
    C7     O721      1.21322  1_565   S
    C148   O722      0.54345      .   S
    C44    O722      0.54345      .   S
    C202   O723      0.54347      .   S
    C74    O723      0.54347      .   S
    C309   O724      0.67818      .   S
    C170   O724      0.67818      .   S
    C295   O725      0.67816      .   S
    C152   O725      0.67816      .   S
    C88    O726      0.54546      .   S
    C232   O726      0.54546      .   S
    C18    O727      0.54544      .   S
    C106   O727      0.54544      .   S
    C90    O728      0.54457      .   S
    C234   O728      0.54457      .   S
    C20    O729      0.54457      .   S
    C108   O729      0.54457      .   S
    C342   O730      0.67929      .   S
    C227   O730      0.67929      .   S
    C342   O731      1.20990      .   S
    C14    O731      1.20990      .   S
    C244   O732      0.67925      .   S
    C101   O732      0.67925      .   S
    C244   O733      1.20969      .   S
    C0     O733      1.20969      .   S
    C227   O734      0.73062      .   S
    C226   O734      0.73062      .   S
    C101   O735      0.73117      .   S
    C100   O735      0.73117      .   S
    C232   O736      0.69607      .   S
    C234   O736      0.69607      .   S
    C232   O737      0.67300      .   S
    C349   O737      0.67300      .   S
    C106   O738      0.69584      .   S
    C108   O738      0.69584  1_455   S
    C106   O739      0.67301      .   S
    C251   O739      0.67301  1_565   S
    C234   O740      0.69914      .   S
    C236   O740      0.69914      .   S
    C108   O741      0.69916      .   S
    C110   O741      0.69916      .   S
    C170   O742      0.72356      .   S
    C171   O742      0.72356      .   S
    C152   O743      0.71885      .   S
    C153   O743      0.71885      .   S
    C349   O744      1.21230      .   S
    C9     O744      1.21230      .   S
    C349   O745      0.67849      .   S
    C229   O745      0.67849      .   S
    C251   O746      1.21208      .   S
    C7     O746      1.21208      .   S
    C251   O747      0.67844      .   S
    C103   O747      0.67844      .   S
    C236   O748      0.54491      .   S
    C92    O748      0.54491      .   S
    C236   O749      0.69489      .   S
    C235   O749      0.69489      .   S
    C110   O750      0.54489      .   S
    C22    O750      0.54489      .   S
    C110   O751      0.69485  1_545   S
    C109   O751      0.69485      .   S
    C9     O752      1.16233      .   S
    C347   O752      1.16233      .   S
    C9     O753      1.14734      .   S
    C298   O753      1.14734      .   S
    C7     O754      1.16278      .   S
    C249   O754      1.16278      .   S
    C7     O755      1.14740  1_565   S
    C284   O755      1.14740      .   S
    C103   O756      0.70032  1_655   S
    C109   O756      0.70032      .   S
    C103   O757      0.72939      .   S
    C105   O757      0.72939      .   S
    C229   O758      0.70053      .   S
    C235   O758      0.70053      .   S
    C229   O759      0.72933      .   S
    C231   O759      0.72933      .   S
    C109   O760      0.54396      .   S
    C21    O760      0.54396      .   S
    C235   O761      0.54399      .   S
    C91    O761      0.54399      .   S
    C226   O762      0.67230      .   S
    C339   O762      0.67230      .   S
    C226   O763      0.68341      .   S
    C341   O763      0.68341      .   S
    C100   O764      0.67229      .   S
    C241   O764      0.67229      .   S
    C100   O765      0.68338      .   S
    C243   O765      0.68338      .   S
    C105   O766      0.68418      .   S
    C249   O766      0.68418      .   S
    C105   O767      0.67087      .   S
    C252   O767      0.67087      .   S
    C231   O768      0.68410      .   S
    C347   O768      0.68410      .   S
    C231   O769      0.67084      .   S
    C350   O769      0.67084      .   S
    C347   O770      0.67539      .   S
    C230   O770      0.67539      .   S
    C249   O771      0.67521      .   S
    C104   O771      0.67521      .   S
    C153   O772      0.67969      .   S
    C284   O772      0.67969      .   S
    C171   O773      0.67792      .   S
    C298   O773      0.67792      .   S
    C350   O774      0.68320      .   S
    C345   O774      0.68320      .   S
    C252   O775      0.68316      .   S
    C247   O775      0.68316      .   S
    C104   O776      0.67642      .   S
    C247   O776      0.67642      .   S
    C104   O777      0.72343      .   S
    C97    O777      0.72343      .   S
    C230   O778      0.67642      .   S
    C345   O778      0.67642      .   S
    C230   O779      0.72349      .   S
    C223   O779      0.72349      .   S
    C247   O780      1.19827      .   S
    C0     O780      1.19827      .   S
    C345   O781      1.19817      .   S
    C14    O781      1.19817      .   S
    C246   O782      0.66800      .   S
    C97    O782      0.66800      .   S
    C246   O783      0.69098      .   S
    C245   O783      0.69098      .   S
    C344   O784      0.66801      .   S
    C223   O784      0.66801      .   S
    C344   O785      0.69107      .   S
    C343   O785      0.69107      .   S
    C14    O786      1.14038      .   S
    C245   O786      1.14038      .   S
    C14    O787      1.18041      .   S
    C338   O787      1.18041      .   S
    C14    O788      1.15060      .   S
    C341   O788      1.15060      .   S
    C97    O789      0.68641      .   S
    C240   O789      0.68641      .   S
    C223   O790      0.68638      .   S
    C338   O790      0.68638      .   S
    C0     O791      1.14032      .   S
    C343   O791      1.14032  1_455   S
    C0     O792      1.18058      .   S
    C240   O792      1.18058      .   S
    C0     O793      1.15080      .   S
    C243   O793      1.15080      .   S
    C245   O794      0.67347      .   S
    C102   O794      0.67347      .   S
    C343   O795      0.67338      .   S
    C228   O795      0.67338      .   S
    C338   O796      0.67324      .   S
    C228   O796      0.67324      .   S
    C240   O797      0.67331      .   S
    C102   O797      0.67331      .   S
    C228   O798      0.54306      .   S
    C87    O798      0.54306      .   S
    C102   O799      0.54298      .   S
    C17    O799      0.54298      .   S
