# CIF file generated by openbabel 2.4.90, see http://openbabel.sf.net
data_I
_chemical_name_common ''
_cell_length_a 13.201
_cell_length_b 23.707
_cell_length_c 16.267
_cell_angle_alpha 90.023
_cell_angle_beta 89.995
_cell_angle_gamma 90
_space_group_name_H-M_alt 'P 1'
_space_group_name_Hall 'P 1'
loop_
    _symmetry_equiv_pos_as_xyz
    x,y,z
loop_
    _atom_site_label
    _atom_site_type_symbol
    _atom_site_fract_x
    _atom_site_fract_y
    _atom_site_fract_z
    _atom_site_occupancy
    N0      N    0.61068   0.58823   0.42050   1.000
    N1      N    0.88929   0.91172   0.92051   1.000
    N2      N    0.13310   0.61988   0.32454   1.000
    N3      N    0.11070   0.91170   0.42051   1.000
    N4      N    0.61070   0.41175   0.07954   1.000
    N5      N    0.88930   0.08830   0.57949   1.000
    N6      N    0.63327   0.87999   0.32441   1.000
    N7      N    0.86689   0.38013   0.67551   1.000
    N8      N    0.13312   0.38012   0.17550   1.000
    N9      N    0.38931   0.41177   0.57952   1.000
    N10     N    0.36672   0.12002   0.67563   1.000
    N11     N    0.36669   0.87999   0.82441   1.000
    N12     N    0.86687   0.61989   0.82454   1.000
    N13     N    0.38930   0.58825   0.92050   1.000
    N14     N    0.11070   0.08829   0.07952   1.000
    N15     N    0.63330   0.12001   0.17559   1.000
    Zr16    Zr   0.66414   0.00000   0.74998   1.000
    O17     O    0.66510   0.03104   0.90064   1.000
    O18     O    0.74817   0.96196   0.83215   1.000
    O19     O    0.75841   0.97437   0.82404   1.000
    O20     O    0.65386   0.94651   0.60589   1.000
    O21     O    0.74818   0.03805   0.66784   1.000
    O22     O    0.75841   0.02565   0.67595   1.000
    O23     O    0.66509   0.96896   0.59936   1.000
    O24     O    0.65387   0.05349   0.89403   1.000
    Zr25    Zr   0.10041   0.71932   0.47267   1.000
    O26     O    0.11081   0.68884   0.41905   1.000
    O27     O    0.12377   0.77188   0.46122   1.000
    O28     O    0.10213   0.78003   0.45859   1.000
    O29     O    0.95645   0.68644   0.46107   1.000
    O30     O    0.11301   0.68273   0.43838   1.000
    Zr31    Zr   0.39956   0.21936   0.52740   1.000
    O32     O    0.38690   0.18279   0.56173   1.000
    O33     O    0.38910   0.18891   0.58106   1.000
    O34     O    0.39785   0.28007   0.54147   1.000
    O35     O    0.37622   0.27192   0.53885   1.000
    O36     O    0.54351   0.18648   0.53898   1.000
    Zr37    Zr   0.16424   0.50001   0.75003   1.000
    O38     O    0.16508   0.53101   0.59942   1.000
    O39     O    0.25846   0.47439   0.67599   1.000
    O40     O    0.24823   0.46199   0.66786   1.000
    O41     O    0.25846   0.52563   0.82405   1.000
    O42     O    0.24822   0.53803   0.83216   1.000
    O43     O    0.16509   0.46900   0.90063   1.000
    O44     O    0.15386   0.55346   0.60597   1.000
    O45     O    0.15387   0.44655   0.89408   1.000
    Zr46    Zr   0.83575   0.50000   0.25002   1.000
    O47     O    0.84613   0.55346   0.10597   1.000
    O48     O    0.74154   0.47438   0.17599   1.000
    O49     O    0.83491   0.53101   0.09942   1.000
    O50     O    0.75177   0.46197   0.16787   1.000
    O51     O    0.83492   0.46900   0.40062   1.000
    O52     O    0.74153   0.52562   0.32405   1.000
    O53     O    0.75176   0.53802   0.33217   1.000
    O54     O    0.84614   0.44655   0.39408   1.000
    Zr55    Zr   0.33585   0.00000   0.25000   1.000
    O56     O    0.34612   0.94651   0.10590   1.000
    O57     O    0.34613   0.05349   0.39412   1.000
    O58     O    0.24159   0.02564   0.17597   1.000
    O59     O    0.33489   0.96896   0.09936   1.000
    O60     O    0.25182   0.03804   0.16786   1.000
    O61     O    0.25182   0.96196   0.33216   1.000
    O62     O    0.24158   0.97436   0.32405   1.000
    O63     O    0.33490   0.03104   0.40066   1.000
    Zr64    Zr   0.89955   0.71934   0.97268   1.000
    O65     O    0.88696   0.68274   0.93838   1.000
    O66     O    0.04351   0.68646   0.96108   1.000
    O67     O    0.87620   0.77189   0.96122   1.000
    O68     O    0.88915   0.68885   0.91905   1.000
    O69     O    0.89784   0.78004   0.95859   1.000
    Zr70    Zr   0.60044   0.78065   0.47257   1.000
    O71     O    0.61309   0.81721   0.43827   1.000
    O72     O    0.45648   0.81352   0.46100   1.000
    O73     O    0.60214   0.71994   0.45853   1.000
    O74     O    0.62378   0.72809   0.46114   1.000
    O75     O    0.61090   0.81110   0.41893   1.000
    Zr76    Zr   0.60046   0.21935   0.02748   1.000
    O77     O    0.61092   0.18890   0.08110   1.000
    O78     O    0.61311   0.18279   0.06177   1.000
    O79     O    0.60216   0.28006   0.04152   1.000
    O80     O    0.45650   0.18647   0.03903   1.000
    O81     O    0.62380   0.27191   0.03890   1.000
    Zr82    Zr   0.39953   0.78066   0.97257   1.000
    O83     O    0.39783   0.71995   0.95853   1.000
    O84     O    0.37619   0.72810   0.96114   1.000
    O85     O    0.38907   0.81110   0.91894   1.000
    O86     O    0.38688   0.81722   0.93827   1.000
    O87     O    0.54350   0.81354   0.96100   1.000
    Zr88    Zr   0.10044   0.28067   0.02730   1.000
    O89     O    0.11084   0.31116   0.08095   1.000
    O90     O    0.12379   0.22812   0.03878   1.000
    O91     O    0.11304   0.31726   0.06162   1.000
    O92     O    0.95648   0.31355   0.03892   1.000
    O93     O    0.10215   0.21997   0.04141   1.000
    Zr94    Zr   0.89959   0.28068   0.52730   1.000
    O95     O    0.88918   0.31117   0.58096   1.000
    O96     O    0.87623   0.22813   0.53869   1.000
    O97     O    0.89787   0.21998   0.54140   1.000
    O98     O    0.04354   0.31357   0.53892   1.000
    O99     O    0.88699   0.31728   0.56162   1.000
loop_
    _geom_bond_atom_site_label_1
    _geom_bond_atom_site_label_2
    _geom_bond_distance
    _geom_bond_site_symmetry_2
    _ccdc_geom_bond_type
    Zr16   O17       2.55858      .   S
    N15    O17       4.96199  1_554   S
    Zr16   O18       1.95743  1_545   S
    N1     O18       2.63760      .   S
    Zr16   O19       1.83578  1_545   S
    N1     O19       2.76689      .   S
    Zr16   O20       2.66801  1_545   S
    N6     O20       4.84980      .   S
    Zr16   O21       1.95711      .   S
    N5     O21       2.63750      .   S
    Zr16   O22       1.83547      .   S
    N5     O22       2.76681      .   S
    Zr16   O23       2.55813  1_545   S
    N6     O23       4.96198      .   S
    Zr16   O24       2.66733      .   S
    N15    O24       4.85100  1_554   S
    Zr25   O26       1.14087      .   S
    N2     O26       2.26288      .   S
    Zr25   O27       1.29692      .   S
    N3     O27       3.38505      .   S
    Zr25   O28       1.45741      .   S
    N3     O28       3.18479      .   S
    Zr25   O29       2.06266  1_455   S
    N0     O29       5.16631      .   S
    Zr25   O30       1.04452      .   S
    N2     O30       2.39114      .   S
    Zr31   O32       1.04479      .   S
    N10    O32       2.39182      .   S
    Zr31   O33       1.14130      .   S
    N10    O33       2.26345      .   S
    Zr31   O34       1.45743      .   S
    N9     O34       3.18476      .   S
    Zr31   O35       1.29689      .   S
    N9     O35       3.38505      .   S
    Zr31   O36       2.06267      .   S
    N5     O36       5.16624      .   S
    Zr37   O38       2.55804      .   S
    N2     O38       4.96183      .   S
    Zr37   O39       1.83450      .   S
    N9     O39       2.76548      .   S
    Zr37   O40       1.95622      .   S
    N9     O40       2.63616      .   S
    Zr37   O41       1.83453      .   S
    N13    O41       2.76540      .   S
    Zr37   O42       1.95609      .   S
    N13    O42       2.63620      .   S
    Zr37   O43       2.55804      .   S
    N8     O43       4.96176  1_554   S
    Zr37   O44       2.66805      .   S
    N2     O44       4.84965      .   S
    Zr37   O45       2.66804      .   S
    N8     O45       4.84958  1_554   S
    Zr46   O47       2.66804      .   S
    N12    O47       4.84964  1_556   S
    Zr46   O48       1.83464      .   S
    N4     O48       2.76540      .   S
    Zr46   O49       2.55803      .   S
    N12    O49       4.96183  1_556   S
    Zr46   O50       1.95624      .   S
    N4     O50       2.63618      .   S
    Zr46   O51       2.55804      .   S
    N7     O51       4.96188      .   S
    Zr46   O52       1.83442      .   S
    N0     O52       2.76528      .   S
    Zr46   O53       1.95612      .   S
    N0     O53       2.63597      .   S
    Zr46   O54       2.66808      .   S
    N7     O54       4.84967      .   S
    Zr55   O56       2.66810  1_545   S
    N11    O56       4.84983  1_556   S
    Zr55   O57       2.66842      .   S
    N10    O57       4.85028      .   S
    Zr55   O58       1.83546      .   S
    N14    O58       2.76670      .   S
    Zr55   O59       2.55823  1_545   S
    N11    O59       4.96200  1_556   S
    Zr55   O60       1.95710      .   S
    N14    O60       2.63741      .   S
    Zr55   O61       1.95734  1_545   S
    N3     O61       2.63752      .   S
    Zr55   O62       1.83568  1_545   S
    N3     O62       2.76683      .   S
    Zr55   O63       2.55859      .   S
    N10    O63       4.96242      .   S
    Zr64   O65       1.04457      .   S
    N12    O65       2.39125      .   S
    Zr64   O66       2.06264  1_655   S
    N13    O66       5.16630      .   S
    Zr64   O67       1.29697      .   S
    N1     O67       3.38520      .   S
    Zr64   O68       1.14092      .   S
    N12    O68       2.26298      .   S
    Zr64   O69       1.45749      .   S
    N1     O69       3.18492      .   S
    Zr70   O71       1.04454      .   S
    N6     O71       2.39125      .   S
    Zr70   O72       2.06264      .   S
    N3     O72       5.16621      .   S
    Zr70   O73       1.45739      .   S
    N0     O73       3.18472      .   S
    Zr70   O74       1.29685      .   S
    N0     O74       3.38500      .   S
    Zr70   O75       1.14098      .   S
    N6     O75       2.26292      .   S
    Zr76   O77       1.14076      .   S
    N15    O77       2.26261      .   S
    Zr76   O78       1.04443      .   S
    N15    O78       2.39083      .   S
    Zr76   O79       1.45729      .   S
    N4     O79       3.18453      .   S
    Zr76   O80       2.06265      .   S
    N14    O80       5.16630      .   S
    Zr76   O81       1.29677      .   S
    N4     O81       3.38481      .   S
    Zr82   O83       1.45731      .   S
    N13    O83       3.18458      .   S
    Zr82   O84       1.29679      .   S
    N13    O84       3.38486      .   S
    Zr82   O85       1.14096      .   S
    N11    O85       2.26292      .   S
    Zr82   O86       1.04453      .   S
    N11    O86       2.39125      .   S
    Zr82   O87       2.06269      .   S
    N1     O87       5.16628      .   S
    Zr88   O89       1.14123      .   S
    N8     O89       2.26342      .   S
    Zr88   O90       1.29702      .   S
    N14    O90       3.38530      .   S
    Zr88   O91       1.04479      .   S
    N8     O91       2.39174      .   S
    Zr88   O92       2.06267  1_455   S
    N4     O92       5.16636      .   S
    Zr88   O93       1.45754      .   S
    N14    O93       3.18501      .   S
    Zr94   O95       1.14127      .   S
    N7     O95       2.26343      .   S
    Zr94   O96       1.29676      .   S
    N5     O96       3.38538      .   S
    Zr94   O97       1.45744      .   S
    N5     O97       3.18485      .   S
    Zr94   O98       2.06268  1_655   S
    N9     O98       5.16634      .   S
    Zr94   O99       1.04479      .   S
    N7     O99       2.39178      .   S
