# CIF file generated by openbabel 2.4.90, see http://openbabel.sf.net
data_I
_chemical_name_common ''
_cell_length_a 17.665
_cell_length_b 15.53
_cell_length_c 19.77
_cell_angle_alpha 90.028
_cell_angle_beta 89.996
_cell_angle_gamma 90.022
_space_group_name_H-M_alt 'P 1'
_space_group_name_Hall 'P 1'
loop_
    _symmetry_equiv_pos_as_xyz
    x,y,z
loop_
    _atom_site_label
    _atom_site_type_symbol
    _atom_site_fract_x
    _atom_site_fract_y
    _atom_site_fract_z
    _atom_site_occupancy
    Zn0     Zn   0.71630   0.03725   0.74162   1.000
    Zn1     Zn   0.03379   0.96270   0.24153   1.000
    Zn2     Zn   0.53368   0.96273   0.24162   1.000
    Zn3     Zn   0.28385   0.53736   0.75851   1.000
    Zn4     Zn   0.78383   0.53736   0.75851   1.000
    Zn5     Zn   0.46625   0.46272   0.25850   1.000
    Zn6     Zn   0.96620   0.46274   0.25851   1.000
    H7      H    0.02529   0.14320   0.85225   1.000
    H8      H    0.52529   0.14320   0.85227   1.000
    H9      H    0.45561   0.24015   0.93450   1.000
    H10     H    0.95560   0.24014   0.93454   1.000
    H11     H    0.00343   0.24921   0.05255   1.000
    H12     H    0.50339   0.24921   0.05257   1.000
    H13     H    0.26048   0.94857   0.15766   1.000
    H14     H    0.76038   0.94852   0.15771   1.000
    H15     H    0.38157   0.97680   0.09311   1.000
    H16     H    0.88148   0.97672   0.09310   1.000
    H17     H    0.37289   0.05642   0.98350   1.000
    H18     H    0.87284   0.05637   0.98359   1.000
    H19     H    0.25550   0.14574   0.60824   1.000
    H20     H    0.75544   0.14570   0.60825   1.000
    H21     H    0.34032   0.29933   0.61611   1.000
    H22     H    0.84029   0.29929   0.61610   1.000
    H23     H    0.34565   0.23629   0.85595   1.000
    H24     H    0.84564   0.23628   0.85594   1.000
    H25     H    0.28891   0.14173   0.85191   1.000
    H26     H    0.78890   0.14172   0.85191   1.000
    H27     H    0.38778   0.13553   0.83635   1.000
    H28     H    0.88777   0.13552   0.83634   1.000
    H29     H    0.39119   0.38270   0.71057   1.000
    H30     H    0.89117   0.38268   0.71054   1.000
    H31     H    0.37298   0.34998   0.79454   1.000
    Zn32    Zn   0.21637   0.03725   0.74161   1.000
    H33     H    0.87295   0.34996   0.79450   1.000
    H34     H    0.48421   0.24957   0.79097   1.000
    H35     H    0.98419   0.24957   0.79097   1.000
    H36     H    0.00793   0.35882   0.78166   1.000
    H37     H    0.50794   0.35882   0.78167   1.000
    H38     H    0.49183   0.23146   0.66270   1.000
    H39     H    0.99183   0.23145   0.66275   1.000
    H40     H    0.02088   0.33961   0.65637   1.000
    H41     H    0.52087   0.33961   0.65630   1.000
    H42     H    0.13024   0.23756   0.65216   1.000
    H43     H    0.63021   0.23756   0.65215   1.000
    H44     H    0.10436   0.19275   0.73062   1.000
    H45     H    0.60434   0.19274   0.73061   1.000
    H46     H    0.15518   0.25297   0.83447   1.000
    H47     H    0.65517   0.25296   0.83446   1.000
    H48     H    0.24204   0.39866   0.86498   1.000
    H49     H    0.74202   0.39866   0.86498   1.000
    H50     H    0.22326   0.45348   0.62433   1.000
    H51     H    0.72324   0.45348   0.62433   1.000
    H52     H    0.16450   0.36414   0.60555   1.000
    H53     H    0.66448   0.36414   0.60554   1.000
    H54     H    0.12298   0.46111   0.63500   1.000
    H55     H    0.62297   0.46112   0.63500   1.000
    H56     H    0.22551   0.85681   0.35200   1.000
    H57     H    0.72485   0.85705   0.35216   1.000
    H58     H    0.29455   0.75958   0.43438   1.000
    H59     H    0.79439   0.75992   0.43432   1.000
    H60     H    0.24619   0.75057   0.55221   1.000
    H61     H    0.74639   0.75056   0.55223   1.000
    H62     H    0.48956   0.05125   0.65784   1.000
    H63     H    0.98983   0.05089   0.65770   1.000
    H64     H    0.36847   0.02325   0.59322   1.000
    H65     H    0.86876   0.02310   0.59304   1.000
    H66     H    0.37716   0.94395   0.48342   1.000
    H67     H    0.87755   0.94470   0.48285   1.000
    H68     H    0.49461   0.85398   0.10821   1.000
    H69     H    0.99457   0.85396   0.10816   1.000
    H70     H    0.40985   0.70036   0.11618   1.000
    H71     H    0.90984   0.70032   0.11618   1.000
    H72     H    0.40434   0.76401   0.35598   1.000
    H73     H    0.90431   0.76408   0.35594   1.000
    H74     H    0.46121   0.85845   0.35187   1.000
    H75     H    0.96112   0.85857   0.35183   1.000
    H76     H    0.36236   0.86480   0.33630   1.000
    H77     H    0.86225   0.86482   0.33624   1.000
    H78     H    0.35902   0.61717   0.21069   1.000
    H79     H    0.85898   0.61720   0.21071   1.000
    H80     H    0.37717   0.65015   0.29465   1.000
    H81     H    0.87716   0.65020   0.29465   1.000
    H82     H    0.26587   0.75039   0.29000   1.000
    H83     H    0.76585   0.75045   0.29101   1.000
    H84     H    0.24219   0.64112   0.28170   1.000
    H85     H    0.74218   0.64117   0.28172   1.000
    H86     H    0.25837   0.76826   0.16275   1.000
    H87     H    0.75836   0.76829   0.16276   1.000
    H88     H    0.22931   0.66011   0.15641   1.000
    H89     H    0.72930   0.66014   0.15643   1.000
    H90     H    0.11999   0.76218   0.15210   1.000
    H91     H    0.61997   0.76220   0.15210   1.000
    H92     H    0.14584   0.80719   0.23054   1.000
    H93     H    0.64581   0.80721   0.23054   1.000
    H94     H    0.09490   0.74731   0.33441   1.000
    H95     H    0.59491   0.74730   0.33440   1.000
    H96     H    0.00809   0.60163   0.36505   1.000
    H97     H    0.50811   0.60161   0.36506   1.000
    H98     H    0.02720   0.54575   0.12457   1.000
    H99     H    0.52720   0.54577   0.12457   1.000
    H100    H    0.87300   0.03857   0.36496   1.000
    C101    C    0.14424   0.04213   0.87673   1.000
    C102    C    0.64423   0.04213   0.87670   1.000
    C103    C    0.10379   0.09867   0.92744   1.000
    H104    H    0.08543   0.63541   0.10555   1.000
    H105    H    0.58543   0.63542   0.10555   1.000
    H106    H    0.12752   0.53888   0.13522   1.000
    H107    H    0.62752   0.53889   0.13522   1.000
    H108    H    0.47566   0.64314   0.64802   1.000
    H109    H    0.97564   0.64320   0.64800   1.000
    H110    H    0.04477   0.74036   0.56550   1.000
    H111    H    0.54480   0.74026   0.56560   1.000
    H112    H    0.49641   0.74928   0.44779   1.000
    H113    H    0.99634   0.74936   0.44777   1.000
    H114    H    0.23973   0.44909   0.34238   1.000
    H115    H    0.73968   0.44910   0.34240   1.000
    H116    H    0.11871   0.47683   0.40717   1.000
    H117    H    0.61867   0.47684   0.40720   1.000
    H118    H    0.12761   0.55516   0.51730   1.000
    H119    H    0.62759   0.55519   0.51740   1.000
    H120    H    0.24480   0.64599   0.89190   1.000
    H121    H    0.74479   0.64600   0.89195   1.000
    H122    H    0.16025   0.79972   0.88409   1.000
    H123    H    0.66024   0.79972   0.88409   1.000
    H124    H    0.15436   0.73615   0.64429   1.000
    H125    H    0.65436   0.73613   0.64428   1.000
    H126    H    0.21130   0.64180   0.64831   1.000
    H127    H    0.71128   0.64177   0.64831   1.000
    H128    H    0.11246   0.63527   0.66394   1.000
    H129    H    0.61244   0.63527   0.66394   1.000
    H130    H    0.10930   0.88288   0.78984   1.000
    H131    H    0.60930   0.88288   0.78982   1.000
    C132    C    0.21995   0.79471   0.51622   1.000
    C133    C    0.71993   0.79466   0.51635   1.000
    C134    C    0.12581   0.89485   0.49548   1.000
    C135    C    0.62547   0.89450   0.49590   1.000
    C136    C    0.05790   0.93993   0.52301   1.000
    H137    H    0.12765   0.85030   0.70580   1.000
    H138    H    0.62764   0.85027   0.70581   1.000
    H139    H    0.01631   0.75003   0.70895   1.000
    H140    H    0.51629   0.75003   0.70895   1.000
    H141    H    0.49264   0.85925   0.71851   1.000
    H142    H    0.99263   0.85925   0.71851   1.000
    H143    H    0.00843   0.73155   0.83713   1.000
    H144    H    0.50844   0.73156   0.83713   1.000
    H145    H    0.47939   0.83967   0.84372   1.000
    H146    H    0.97937   0.83967   0.84372   1.000
    H147    H    0.37004   0.73753   0.84753   1.000
    H148    H    0.87001   0.73754   0.84752   1.000
    H149    H    0.39606   0.69293   0.76901   1.000
    H150    H    0.89603   0.69295   0.76899   1.000
    H151    H    0.34492   0.75289   0.66539   1.000
    H152    H    0.84489   0.75292   0.66530   1.000
    H153    H    0.25809   0.89856   0.63501   1.000
    H154    H    0.75804   0.89858   0.63501   1.000
    H155    H    0.27756   0.95347   0.87575   1.000
    H156    H    0.77755   0.95348   0.87576   1.000
    H157    H    0.33698   0.86468   0.89422   1.000
    H158    H    0.83696   0.86469   0.89422   1.000
    H159    H    0.37774   0.96191   0.86441   1.000
    H160    H    0.87772   0.96192   0.86441   1.000
    H161    H    0.27475   0.35644   0.14790   1.000
    H162    H    0.77472   0.35642   0.14790   1.000
    H163    H    0.20532   0.25984   0.06529   1.000
    H164    H    0.70529   0.25982   0.06520   1.000
    H165    H    0.25306   0.25190   0.94720   1.000
    H166    H    0.75304   0.25188   0.94700   1.000
    H167    H    0.01073   0.55127   0.84251   1.000
    H168    H    0.51074   0.55128   0.84251   1.000
    H169    H    0.13158   0.52313   0.90740   1.000
    H170    H    0.63158   0.52314   0.90739   1.000
    H171    H    0.12234   0.44461   0.01746   1.000
    H172    H    0.62235   0.44462   0.01745   1.000
    H173    H    0.00543   0.35437   0.39194   1.000
    H174    H    0.50529   0.35441   0.39197   1.000
    H175    H    0.09011   0.20074   0.38403   1.000
    H176    H    0.58983   0.20068   0.38420   1.000
    H177    H    0.09573   0.26394   0.14422   1.000
    H178    H    0.59580   0.26376   0.14436   1.000
    H179    H    0.03884   0.35834   0.14825   1.000
    H180    H    0.53893   0.35818   0.14830   1.000
    H181    H    0.13769   0.36480   0.16389   1.000
    H182    H    0.63778   0.36462   0.16401   1.000
    H183    H    0.14084   0.11735   0.28956   1.000
    H184    H    0.64080   0.11728   0.28994   1.000
    H185    H    0.12261   0.15012   0.20560   1.000
    H186    H    0.62254   0.14980   0.20594   1.000
    H187    H    0.23400   0.25031   0.20900   1.000
    H188    H    0.73390   0.25009   0.20921   1.000
    H189    H    0.25759   0.14106   0.21843   1.000
    H190    H    0.75749   0.14085   0.21861   1.000
    H191    H    0.24166   0.26858   0.33725   1.000
    H192    H    0.74174   0.26839   0.33743   1.000
    H193    H    0.27063   0.16043   0.34368   1.000
    H194    H    0.77077   0.16026   0.34383   1.000
    H195    H    0.38004   0.26252   0.34778   1.000
    H196    H    0.88012   0.26240   0.34783   1.000
    H197    H    0.35416   0.30720   0.26928   1.000
    H198    H    0.85414   0.30709   0.26930   1.000
    H199    H    0.40518   0.24707   0.16550   1.000
    H200    H    0.90492   0.24691   0.16555   1.000
    H201    H    0.49195   0.10132   0.13513   1.000
    H202    H    0.99181   0.10128   0.13502   1.000
    H203    H    0.47271   0.04687   0.37591   1.000
    H204    H    0.97323   0.04670   0.37573   1.000
    H205    H    0.41327   0.13567   0.39430   1.000
    H206    H    0.91417   0.13575   0.39447   1.000
    H207    H    0.37251   0.03835   0.36468   1.000
    N208    N    0.72100   0.42849   0.76000   1.000
    N209    N    0.15094   0.31463   0.73684   1.000
    N210    N    0.65094   0.31462   0.73683   1.000
    N211    N    0.25677   0.07441   0.98826   1.000
    N212    N    0.75672   0.07438   0.98832   1.000
    N213    N    0.08897   0.15919   0.03950   1.000
    N214    N    0.58892   0.15917   0.03950   1.000
    N215    N    0.46831   0.86014   0.21427   1.000
    C216    C    0.60377   0.09866   0.92747   1.000
    C217    C    0.04202   0.14749   0.90525   1.000
    C218    C    0.54201   0.14749   0.90526   1.000
    C219    C    0.00373   0.20095   0.95015   1.000
    C220    C    0.50371   0.20096   0.95016   1.000
    C221    C    0.02998   0.20525   0.01659   1.000
    C222    C    0.52995   0.20525   0.01661   1.000
    C223    C    0.12452   0.10552   0.99603   1.000
    C224    C    0.62448   0.10551   0.99606   1.000
    C225    C    0.19252   0.06065   0.02357   1.000
    C226    C    0.69246   0.06063   0.02361   1.000
    C227    C    0.19094   0.01328   0.08450   1.000
    C228    C    0.69086   0.01325   0.08454   1.000
    C229    C    0.26022   0.98364   0.10992   1.000
    C230    C    0.76013   0.98359   0.10997   1.000
    C231    C    0.32694   0.99890   0.07435   1.000
    C232    C    0.82686   0.99885   0.07441   1.000
    C233    C    0.32204   0.04360   0.01336   1.000
    C234    C    0.82198   0.04355   0.01342   1.000
    C235    C    0.11837   0.99065   0.12095   1.000
    C236    C    0.61826   0.99062   0.12096   1.000
    C237    C    0.28429   0.17651   0.65027   1.000
    C238    C    0.78426   0.17648   0.65026   1.000
    C239    C    0.32652   0.25039   0.65320   1.000
    C240    C    0.82649   0.25035   0.65319   1.000
    C241    C    0.32254   0.19046   0.75579   1.000
    C242    C    0.82252   0.19044   0.75579   1.000
    C243    C    0.33695   0.17540   0.82876   1.000
    C244    C    0.83694   0.17539   0.82875   1.000
    C245    C    0.39725   0.32902   0.74626   1.000
    C246    C    0.89722   0.32900   0.74624   1.000
    C247    C    0.48028   0.30441   0.75587   1.000
    C248    C    0.98026   0.30440   0.75586   1.000
    C249    C    0.02173   0.28315   0.69009   1.000
    C250    C    0.52172   0.28316   0.69009   1.000
    C251    C    0.10313   0.25233   0.70070   1.000
    C252    C    0.60311   0.25233   0.70077   1.000
    C253    C    0.17141   0.30831   0.80443   1.000
    C254    C    0.67141   0.30830   0.80442   1.000
    C255    C    0.21456   0.37922   0.81838   1.000
    C256    C    0.71455   0.37921   0.81830   1.000
    C257    C    0.18170   0.38835   0.71101   1.000
    C258    C    0.68169   0.38834   0.71100   1.000
    C259    C    0.17240   0.41848   0.64035   1.000
    C260    C    0.67239   0.41848   0.64035   1.000
    C261    C    0.10674   0.95796   0.37592   1.000
    C262    C    0.60583   0.95795   0.37670   1.000
    C263    C    0.14679   0.90158   0.42695   1.000
    C264    C    0.64627   0.90144   0.42738   1.000
    C265    C    0.20854   0.85257   0.40493   1.000
    C266    C    0.70805   0.85265   0.40513   1.000
    C267    C    0.24650   0.79894   0.44980   1.000
    C268    C    0.74628   0.79910   0.44996   1.000
    C269    C    0.55751   0.93943   0.52351   1.000
    C270    C    0.05945   0.98684   0.58422   1.000
    C271    C    0.55910   0.98664   0.58455   1.000
    C272    C    0.48983   0.01632   0.61000   1.000
    C273    C    0.99013   0.01625   0.60979   1.000
    C274    C    0.42310   0.00115   0.57442   1.000
    C275    C    0.92341   0.00124   0.57412   1.000
    C276    C    0.42800   0.95662   0.51331   1.000
    C277    C    0.92837   0.95720   0.51281   1.000
    C278    C    0.13202   0.00932   0.62078   1.000
    C279    C    0.63170   0.00926   0.62097   1.000
    C280    C    0.46581   0.82330   0.15025   1.000
    C281    C    0.96576   0.82331   0.15021   1.000
    C282    C    0.42362   0.74940   0.15323   1.000
    C283    C    0.92360   0.74939   0.15321   1.000
    C284    C    0.42754   0.80957   0.25579   1.000
    C285    C    0.92749   0.80963   0.25574   1.000
    C286    C    0.41312   0.82481   0.32874   1.000
    C287    C    0.91306   0.82489   0.32869   1.000
    C288    C    0.35291   0.67094   0.24634   1.000
    C289    C    0.85288   0.67098   0.24630   1.000
    C290    C    0.26985   0.69551   0.25590   1.000
    C291    C    0.76983   0.69556   0.25592   1.000
    C292    C    0.22846   0.71663   0.19010   1.000
    C293    C    0.72844   0.71666   0.19012   1.000
    C294    C    0.14707   0.74753   0.20074   1.000
    C295    C    0.64705   0.74756   0.20074   1.000
    C296    C    0.07870   0.69187   0.30442   1.000
    C297    C    0.57870   0.69187   0.30443   1.000
    C298    C    0.03554   0.62101   0.31840   1.000
    C299    C    0.53556   0.62100   0.31844   1.000
    C300    C    0.06846   0.61157   0.21108   1.000
    C301    C    0.56846   0.61158   0.21100   1.000
    C302    C    0.07787   0.58119   0.14048   1.000
    C303    C    0.57787   0.58120   0.14040   1.000
    C304    C    0.35677   0.54204   0.62413   1.000
    C305    C    0.85677   0.54206   0.62412   1.000
    C306    C    0.39687   0.59838   0.57309   1.000
    C307    C    0.89685   0.59843   0.57308   1.000
    C308    C    0.45867   0.64737   0.59509   1.000
    C309    C    0.95865   0.64743   0.59508   1.000
    C310    C    0.49671   0.70093   0.55011   1.000
    C311    C    0.99665   0.70102   0.55010   1.000
    C312    C    0.47014   0.70517   0.48378   1.000
    C313    C    0.97007   0.70526   0.48377   1.000
    C314    C    0.37587   0.60512   0.50458   1.000
    C315    C    0.87584   0.60516   0.50457   1.000
    C316    C    0.30792   0.56002   0.47709   1.000
    C317    C    0.80789   0.56005   0.47709   1.000
    C318    C    0.30940   0.51315   0.41586   1.000
    C319    C    0.80936   0.51317   0.41587   1.000
    C320    C    0.24007   0.48370   0.39035   1.000
    C321    C    0.74003   0.48372   0.39037   1.000
    C322    C    0.17338   0.49870   0.42605   1.000
    C323    C    0.67334   0.49872   0.42607   1.000
    C324    C    0.17840   0.54271   0.48737   1.000
    C325    C    0.67837   0.54273   0.48739   1.000
    C326    C    0.38191   0.49070   0.37926   1.000
    C327    C    0.88186   0.49070   0.37925   1.000
    C328    C    0.21596   0.67672   0.84996   1.000
    C329    C    0.71595   0.67673   0.84996   1.000
    C330    C    0.17389   0.75066   0.84702   1.000
    C331    C    0.67388   0.75066   0.84702   1.000
    C332    C    0.17767   0.69053   0.74440   1.000
    C333    C    0.67766   0.69052   0.74444   1.000
    C334    C    0.16320   0.67534   0.67149   1.000
    C335    C    0.66319   0.67533   0.67149   1.000
    C336    C    0.10325   0.82927   0.75403   1.000
    C337    C    0.60324   0.82926   0.75402   1.000
    C338    C    0.02021   0.80475   0.74421   1.000
    C339    C    0.52019   0.80474   0.74421   1.000
    C340    C    0.47862   0.78330   0.80980   1.000
    C341    C    0.97860   0.78331   0.80986   1.000
    C342    C    0.39725   0.75243   0.79899   1.000
    C343    C    0.89723   0.75245   0.79898   1.000
    C344    C    0.32879   0.80828   0.69545   1.000
    C345    C    0.82877   0.80831   0.69544   1.000
    C346    C    0.28563   0.87914   0.68156   1.000
    C347    C    0.78560   0.87917   0.68156   1.000
    C348    C    0.31885   0.88852   0.78880   1.000
    C349    C    0.81882   0.88854   0.78885   1.000
    C350    C    0.32851   0.91887   0.85944   1.000
    C351    C    0.82849   0.91888   0.85943   1.000
    C352    C    0.39333   0.45798   0.12414   1.000
    C353    C    0.89328   0.45798   0.12414   1.000
    C354    C    0.35322   0.40174   0.07299   1.000
    C355    C    0.85318   0.40174   0.07000   1.000
    C356    C    0.29152   0.35258   0.09495   1.000
    C357    C    0.79149   0.35256   0.09495   1.000
    C358    C    0.25332   0.29932   0.04983   1.000
    C359    C    0.75329   0.29930   0.04980   1.000
    C360    C    0.27955   0.29566   0.98336   1.000
    C361    C    0.77953   0.29565   0.98335   1.000
    C362    C    0.37402   0.39544   0.00000   1.000
    C363    C    0.87399   0.39543   0.00000   1.000
    C364    C    0.44208   0.44040   0.97000   1.000
    C365    C    0.94205   0.44040   0.97700   1.000
    C366    C    0.44081   0.48738   0.91585   1.000
    C367    C    0.94078   0.48738   0.91580   1.000
    C368    C    0.01023   0.51660   0.89043   1.000
    C369    C    0.51024   0.51660   0.89043   1.000
    C370    C    0.07684   0.50136   0.92618   1.000
    C371    C    0.57684   0.50137   0.92617   1.000
    C372    C    0.07162   0.45726   0.98741   1.000
    C373    C    0.57163   0.45727   0.98740   1.000
    C374    C    0.36843   0.51028   0.87925   1.000
    C375    C    0.86840   0.51027   0.87925   1.000
    C376    C    0.03421   0.32360   0.34991   1.000
    C377    C    0.53411   0.32359   0.34999   1.000
    C378    C    0.07634   0.24969   0.34696   1.000
    C379    C    0.57620   0.24965   0.34711   1.000
    C380    C    0.07245   0.30967   0.24438   1.000
    C381    C    0.57248   0.30957   0.24450   1.000
    C382    C    0.08691   0.32479   0.17143   1.000
    C383    C    0.58699   0.32462   0.17155   1.000
    C384    C    0.14695   0.17103   0.25387   1.000
    C385    C    0.64690   0.17087   0.25416   1.000
    C386    C    0.23001   0.19554   0.24419   1.000
    C387    C    0.72997   0.19534   0.24439   1.000
    C388    C    0.27149   0.21685   0.30993   1.000
    C389    C    0.77156   0.21668   0.31007   1.000
    C390    C    0.35289   0.24767   0.29919   1.000
    C391    C    0.85294   0.24755   0.29926   1.000
    C392    C    0.42131   0.19171   0.19561   1.000
    C393    C    0.92119   0.19160   0.19559   1.000
    C394    C    0.46443   0.12080   0.18170   1.000
    C395    C    0.96436   0.12076   0.18163   1.000
    C396    C    0.43130   0.11159   0.28902   1.000
    C397    C    0.93154   0.11160   0.28902   1.000
    C398    C    0.42172   0.08139   0.35963   1.000
    C399    C    0.92228   0.08145   0.35967   1.000
    N400    N    0.28176   0.13982   0.71431   1.000
    N401    N    0.78173   0.13979   0.71431   1.000
    N402    N    0.35040   0.25845   0.71979   1.000
    N403    N    0.85039   0.25842   0.71978   1.000
    N404    N    0.22101   0.42850   0.76000   1.000
    N405    N    0.96825   0.86019   0.21421   1.000
    N406    N    0.39972   0.74148   0.21983   1.000
    N407    N    0.89969   0.74151   0.21981   1.000
    N408    N    0.02911   0.57157   0.26009   1.000
    N409    N    0.52913   0.57156   0.26010   1.000
    N410    N    0.09922   0.68536   0.23684   1.000
    N411    N    0.59921   0.68537   0.23685   1.000
    N412    N    0.49327   0.92582   0.48817   1.000
    N413    N    0.99367   0.92661   0.48756   1.000
    N414    N    0.16106   0.84104   0.53901   1.000
    N415    N    0.66095   0.84072   0.53932   1.000
    N416    N    0.21838   0.63989   0.78593   1.000
    N417    N    0.71838   0.63989   0.78593   1.000
    N418    N    0.14995   0.75864   0.78044   1.000
    N419    N    0.64994   0.75863   0.78044   1.000
    N420    N    0.27937   0.92854   0.73994   1.000
    N421    N    0.77935   0.92856   0.73994   1.000
    N422    N    0.34949   0.81475   0.76299   1.000
    N423    N    0.84947   0.81477   0.76298   1.000
    N424    N    0.24373   0.57331   0.51258   1.000
    N425    N    0.74371   0.57335   0.51259   1.000
    N426    N    0.41117   0.65890   0.46103   1.000
    N427    N    0.91111   0.65897   0.46102   1.000
    N428    N    0.03172   0.36032   0.28588   1.000
    N429    N    0.53172   0.36028   0.28593   1.000
    N430    N    0.10023   0.24164   0.28036   1.000
    N431    N    0.60018   0.24154   0.28050   1.000
    N432    N    0.47071   0.07148   0.24007   1.000
    N433    N    0.97086   0.07150   0.24001   1.000
    N434    N    0.40067   0.18534   0.26316   1.000
    N435    N    0.90073   0.18526   0.26319   1.000
    N436    N    0.00619   0.42682   0.01252   1.000
    N437    N    0.50620   0.42682   0.01251   1.000
    N438    N    0.33845   0.34207   0.96065   1.000
    N439    N    0.83842   0.34206   0.96065   1.000
    O440    O    0.14941   0.96311   0.88550   1.000
    O441    O    0.64941   0.96311   0.88558   1.000
    O442    O    0.16880   0.08544   0.82474   1.000
    O443    O    0.66880   0.08545   0.82478   1.000
    O444    O    0.05829   0.98054   0.08897   1.000
    O445    O    0.55821   0.98047   0.08894   1.000
    O446    O    0.12627   0.98149   0.18614   1.000
    O447    O    0.62610   0.98154   0.18616   1.000
    O448    O    0.10297   0.03726   0.38371   1.000
    O449    O    0.60073   0.03700   0.38500   1.000
    O450    O    0.08104   0.91416   0.32462   1.000
    O451    O    0.58117   0.91457   0.32475   1.000
    O452    O    0.19214   0.01944   0.58880   1.000
    O453    O    0.69175   0.01937   0.58895   1.000
    O454    O    0.12408   0.01841   0.68598   1.000
    O455    O    0.62387   0.01845   0.68617   1.000
    O456    O    0.35299   0.46275   0.61630   1.000
    O457    O    0.85299   0.46277   0.61637   1.000
    O458    O    0.33109   0.58587   0.67542   1.000
    O459    O    0.83109   0.58587   0.67542   1.000
    O460    O    0.44206   0.48061   0.41113   1.000
    O461    O    0.94202   0.48062   0.41112   1.000
    O462    O    0.37390   0.48154   0.31407   1.000
    O463    O    0.87384   0.48155   0.31407   1.000
    O464    O    0.39708   0.53727   0.11646   1.000
    O465    O    0.89705   0.53727   0.11646   1.000
    O466    O    0.41897   0.41414   0.17540   1.000
    O467    O    0.91891   0.41414   0.17540   1.000
    O468    O    0.30856   0.52178   0.91125   1.000
    O469    O    0.80853   0.52177   0.91120   1.000
    O470    O    0.37627   0.51831   0.81397   1.000
    O471    O    0.87625   0.51831   0.81397   1.000
loop_
    _geom_bond_atom_site_label_1
    _geom_bond_atom_site_label_2
    _geom_bond_distance
    _geom_bond_site_symmetry_2
    _ccdc_geom_bond_type
    C362   C354      1.49218      .   S
    C362   N438      1.29839  1_554   S
    C362   C364      1.51153  1_554   S
    C363   C355      1.43513      .   S
    C363   N439      1.29839  1_554   S
    C363   C365      1.46279  1_554   S
    N437   C364      1.42620  1_554   S
    N437   C373      1.34382  1_554   S
    N436   C365      1.34971  1_454   S
    N436   C372      1.34385  1_554   S
    C233   C231      1.39429  1_545   S
    C233   H17       1.09318  1_554   S
    C233   N211      1.34370  1_554   S
    C234   C232      1.39435  1_545   S
    C234   H18       1.09296  1_554   S
    C234   N212      1.34365  1_554   S
    C221   N213      1.34291      .   S
    C221   H11       1.09147      .   S
    C221   C219      1.39461  1_554   S
    C222   N214      1.34271      .   S
    C222   H12       1.09152      .   S
    C222   C220      1.39469  1_554   S
    H172   C373      1.09298  1_554   S
    H171   C372      1.09296  1_554   S
    C225   C227      1.41203      .   S
    C225   N211      1.34938  1_554   S
    C225   C223      1.49191  1_554   S
    C226   C228      1.41209      .   S
    C226   N212      1.34930  1_554   S
    C226   C224      1.49188  1_554   S
    N214   C224      1.35146  1_554   S
    N213   C223      1.35180  1_554   S
    C359   H164      1.08968      .   S
    C359   C357      1.39110      .   S
    C359   C361      1.39417  1_554   S
    C358   H163      1.08998      .   S
    C358   C356      1.39076      .   S
    C358   C360      1.39453  1_554   S
    C355   C357      1.41908      .   S
    C355   C353      1.55212      .   S
    C354   C356      1.39961      .   S
    C354   C352      1.51199      .   S
    C231   H15       1.08958      .   S
    C231   C229      1.39278      .   S
    C232   H16       1.08908      .   S
    C232   C230      1.39280      .   S
    C227   C229      1.40105  1_545   S
    C227   C235      1.51189  1_545   S
    C228   C230      1.40106  1_545   S
    C228   C236      1.51198  1_545   S
    O445   C236      1.24527      .   S
    O444   C235      1.24530      .   S
    C357   H162      1.08956      .   S
    C356   H161      1.08956      .   S
    H104   C302      1.09738      .   S
    H105   C303      1.09641      .   S
    H69    C281      1.08487      .   S
    H68    C280      1.08487      .   S
    C229   H13       1.08988      .   S
    C230   H14       1.08998      .   S
    H71    C283      1.08405      .   S
    H70    C282      1.08406      .   S
    O465   C353      1.24256      .   S
    O464   C352      1.24258      .   S
    C235   O446      1.30418      .   S
    C236   O447      1.30415      .   S
    C352   O466      1.30261      .   S
    C353   O467      1.30247      .   S
    H99    C303      1.09604      .   S
    H98    C302      1.09650      .   S
    H202   C395      1.08417      .   S
    H201   C394      1.08412      .   S
    H107   C303      1.10080      .   S
    H106   C302      1.10096      .   S
    C303   C301      1.48247      .   S
    C302   C300      1.48250      .   S
    H177   C382      1.09824      .   S
    H178   C383      1.09822      .   S
    H179   C382      1.09695      .   S
    H180   C383      1.09736      .   S
    C281   C283      1.36944      .   S
    C281   N405      1.38935      .   S
    C280   C282      1.36942      .   S
    C280   N215      1.38942      .   S
    H91    C295      1.09803      .   S
    H90    C294      1.09806      .   S
    C283   N407      1.38818      .   S
    C282   N406      1.38822      .   S
    H88    C292      1.10169      .   S
    H89    C293      1.10179      .   S
    H86    C292      1.10209      .   S
    H87    C293      1.10214      .   S
    H181   C382      1.10123      .   S
    H182   C383      1.10124      .   S
    H199   C392      1.08414      .   S
    H200   C393      1.08341      .   S
    C382   C380      1.48345      .   S
    C383   C381      1.48345      .   S
    O467   Zn6       1.99139      .   S
    O466   Zn5       1.99110      .   S
    C395   C393      1.36703      .   S
    C395   N433      1.38976      .   S
    C394   C392      1.36702      .   S
    C394   N432      1.38988      .   S
    O446   Zn1       1.98815      .   S
    O447   Zn2       1.98811      .   S
    C292   C294      1.53033      .   S
    C292   C290      1.52814      .   S
    C293   C295      1.53026      .   S
    C293   C291      1.52808      .   S
    C393   N435      1.38796      .   S
    C392   N434      1.38787      .   S
    C294   H92       1.09791      .   S
    C294   N410      1.46842      .   S
    C295   H93       1.09791      .   S
    C295   N411      1.46854      .   S
    H185   C384      1.09572      .   S
    H186   C385      1.09570      .   S
    H187   C386      1.10139      .   S
    H188   C387      1.10095      .   S
    H78    C288      1.09782      .   S
    H79    C289      1.09717      .   S
    C301   N411      1.36692      .   S
    C301   N409      1.34589      .   S
    C300   N410      1.36625      .   S
    C300   N408      1.34466      .   S
    N405   Zn1       2.04065  1_655   S
    N405   C285      1.34507      .   S
    N215   Zn2       2.04001      .   S
    N215   C284      1.34515      .   S
    H189   C386      1.10104      .   S
    H190   C387      1.10101      .   S
    N407   C289      1.46876      .   S
    N407   C285      1.36533      .   S
    N406   C288      1.46908      .   S
    N406   C284      1.36536      .   S
    N410   C296      1.38798      .   S
    N411   C297      1.38792      .   S
    N433   Zn1       2.02307  1_645   S
    N433   C397      1.34485      .   S
    N432   Zn2       2.02288  1_545   S
    N432   C396      1.34498      .   S
    Zn1    O450      1.99134      .   S
    Zn2    O451      1.99149      .   S
    C386   C384      1.52774      .   S
    C386   C388      1.52814      .   S
    C380   N430      1.36536      .   S
    C380   N428      1.34510      .   S
    C387   C385      1.52790      .   S
    C387   C389      1.52814      .   S
    C381   N431      1.36499      .   S
    C381   N429      1.34501      .   S
    C289   C291      1.52793      .   S
    C289   H81       1.09644      .   S
    C288   C290      1.52780      .   S
    C288   H80       1.09572      .   S
    C384   N430      1.46908      .   S
    C384   H183      1.09769      .   S
    C385   N431      1.46873      .   S
    C385   H184      1.09772      .   S
    C285   C287      1.48352      .   S
    C284   C286      1.48341      .   S
    C290   H84       1.10104      .   S
    C290   H82       1.08875      .   S
    C291   H85       1.10099      .   S
    C291   H83       1.10107      .   S
    Zn5    N409      2.02246      .   S
    Zn5    N429      2.04089      .   S
    Zn5    O462      1.98837      .   S
    Zn6    N408      2.02266  1_655   S
    Zn6    N428      2.04065  1_655   S
    Zn6    O463      1.98840      .   S
    N408   C298      1.38938      .   S
    N409   C299      1.38985      .   S
    N434   C396      1.36637      .   S
    N434   C390      1.46856      .   S
    N435   C397      1.36637      .   S
    N435   C391      1.46856      .   S
    H197   C390      1.09792      .   S
    H198   C391      1.09859      .   S
    N430   C378      1.38819      .   S
    N431   C379      1.38897      .   S
    N428   C376      1.38939      .   S
    N429   C377      1.38959      .   S
    C397   C399      1.48238      .   S
    C396   C398      1.48248      .   S
    C390   C388      1.53016      .   S
    C390   H195      1.09801      .   S
    C391   C389      1.53029      .   S
    C391   H196      1.09795      .   S
    C296   C298      1.36689      .   S
    C296   H94       1.08347      .   S
    C297   C299      1.36700      .   S
    C297   H95       1.08316      .   S
    C388   H191      1.10217      .   S
    C388   H193      1.10167      .   S
    C389   H192      1.10223      .   S
    C389   H194      1.10175      .   S
    O462   C326      1.30425      .   S
    O463   C327      1.30410      .   S
    C298   H96       1.08462      .   S
    C299   H97       1.08409      .   S
    O450   C261      1.30250      .   S
    O451   C262      1.30289      .   S
    C287   H77       1.10128      .   S
    C287   H75       1.09691      .   S
    C287   H73       1.09823      .   S
    C286   H76       1.10122      .   S
    C286   H74       1.09683      .   S
    C286   H72       1.09814      .   S
    H114   C320      1.08992      .   S
    H115   C321      1.08999      .   S
    C378   C376      1.36945      .   S
    C378   H175      1.08396      .   S
    C379   C377      1.36941      .   S
    C379   H176      1.08388      .   S
    C376   H173      1.08493      .   S
    C377   H174      1.08483      .   S
    H56    C265      1.09051      .   S
    H57    C266      1.09059      .   S
    C398   H207      1.10087      .   S
    C398   H203      1.09677      .   S
    C398   H205      1.09645      .   S
    C399   H100      1.10089      .   S
    C399   H204      1.09670      .   S
    C399   H206      1.09753      .   S
    C261   O448      1.24289  1_565   S
    C261   C263      1.51209      .   S
    C262   O449      1.24166  1_565   S
    C262   C264      1.51193      .   S
    C327   O461      1.24543      .   S
    C327   C319      1.51208      .   S
    C326   O460      1.24537      .   S
    C326   C318      1.51201      .   S
    C320   C318      1.40098      .   S
    C320   C322      1.39289      .   S
    C321   C319      1.40096      .   S
    C321   C323      1.39281      .   S
    C265   C263      1.39966      .   S
    C265   C267      1.38978      .   S
    C266   C264      1.39963      .   S
    C266   C268      1.39093      .   S
    H116   C322      1.08959      .   S
    H117   C323      1.08957      .   S
    C318   C316      1.41238      .   S
    C319   C317      1.41236      .   S
    C322   C324      1.39422      .   S
    C323   C325      1.39429      .   S
    C263   C134      1.40853      .   S
    C264   C135      1.40775      .   S
    H59    C268      1.09007      .   S
    H58    C267      1.08959      .   S
    H113   C313      1.09145      .   S
    H112   C312      1.09142      .   S
    C267   C132      1.39591      .   S
    C268   C133      1.39437      .   S
    N427   C313      1.34281      .   S
    N427   C315      1.35206      .   S
    N426   C312      1.34276      .   S
    N426   C314      1.35205      .   S
    C317   C315      1.49193      .   S
    C317   N425      1.34923      .   S
    C316   C314      1.49191      .   S
    C316   N424      1.34922      .   S
    H67    C277      1.09289      .   S
    H66    C276      1.09284      .   S
    C313   C311      1.39450      .   S
    C312   C310      1.39443      .   S
    C324   N424      1.34371      .   S
    C324   H118      1.09202      .   S
    C325   N425      1.34372      .   S
    C325   H119      1.09282      .   S
    N413   C277      1.34374      .   S
    N413   C136      1.34954  1_655   S
    N412   C276      1.34365      .   S
    N412   C269      1.34922      .   S
    C134   C136      1.49182      .   S
    C134   N414      1.35205      .   S
    C135   C269      1.49208      .   S
    C135   N415      1.35217      .   S
    C315   C307      1.40837      .   S
    C314   C306      1.40831      .   S
    C277   C275      1.39422  1_565   S
    C276   C274      1.39443  1_565   S
    C132   N414      1.34286      .   S
    C132   H60       1.09158      .   S
    C133   N415      1.34298      .   S
    C133   H61       1.09153      .   S
    C136   C270      1.41241      .   S
    C269   C271      1.41203      .   S
    C311   H110      1.08994  1_655   S
    C311   C309      1.39077      .   S
    C310   H111      1.09004      .   S
    C310   C308      1.39071      .   S
    C307   C309      1.39969      .   S
    C307   C305      1.51203      .   S
    C306   C308      1.39965      .   S
    C306   C304      1.51195      .   S
    C275   H65       1.08962      .   S
    C275   C273      1.39297      .   S
    C274   H64       1.08960      .   S
    C274   C272      1.39268      .   S
    C270   C273      1.40145  1_465   S
    C270   C278      1.51228  1_565   S
    C271   C272      1.40099  1_565   S
    C271   C279      1.51200  1_565   S
    O452   C278      1.24591      .   S
    O453   C279      1.24526      .   S
    C309   H109      1.09051      .   S
    C308   H108      1.09064      .   S
    H53    C260      1.09749      .   S
    H52    C259      1.09737      .   S
    H19    C237      1.08496      .   S
    H20    C238      1.08482      .   S
    C273   H63       1.08909      .   S
    C272   H62       1.09015      .   S
    H22    C240      1.08406      .   S
    H21    C239      1.08409      .   S
    O456   C304      1.24281      .   S
    O457   C305      1.24261      .   S
    C278   O454      1.30420      .   S
    C279   O455      1.30416      .   S
    C305   O459      1.30265      .   S
    C304   O458      1.30260      .   S
    H50    C259      1.09662      .   S
    H51    C260      1.09661      .   S
    H55    C260      1.10100      .   S
    H54    C259      1.10100      .   S
    H154   C347      1.08414      .   S
    H153   C346      1.08399      .   S
    C260   C258      1.48245      .   S
    C259   C257      1.48261      .   S
    H125   C335      1.09818      .   S
    H124   C334      1.09815      .   S
    H127   C335      1.09693      .   S
    H126   C334      1.09692      .   S
    C238   C240      1.36944      .   S
    C238   N401      1.38947      .   S
    C237   C239      1.36941      .   S
    C237   N400      1.38937      .   S
    H43    C252      1.09800      .   S
    H42    C251      1.09667      .   S
    C240   N403      1.38812      .   S
    C239   N402      1.38807      .   S
    H41    C250      1.10259      .   S
    H40    C249      1.10172      .   S
    H38    C250      1.10264      .   S
    H39    C249      1.10236  1_655   S
    H129   C335      1.10122      .   S
    H128   C334      1.10120      .   S
    H152   C345      1.08434      .   S
    H151   C344      1.08347      .   S
    C335   C333      1.48346      .   S
    C334   C332      1.48268      .   S
    O459   Zn4       1.99087      .   S
    O458   Zn3       1.99071      .   S
    C346   C344      1.36701      .   S
    C346   N420      1.38998      .   S
    C347   C345      1.36702      .   S
    C347   N421      1.38992      .   S
    O454   Zn32      1.98816      .   S
    O455   Zn0       1.98814      .   S
    C250   C252      1.53030      .   S
    C250   C247      1.52824      .   S
    C249   C251      1.53010      .   S
    C249   C248      1.52838  1_455   S
    C345   N423      1.38803      .   S
    C344   N422      1.38803      .   S
    C251   H44       1.09864      .   S
    C251   N209      1.46934      .   S
    C252   H45       1.09784      .   S
    C252   N210      1.46858      .   S
    H137   C336      1.09627      .   S
    H138   C337      1.09579      .   S
    H139   C338      1.10095      .   S
    H140   C339      1.10093      .   S
    H30    C246      1.09783      .   S
    H29    C245      1.09776      .   S
    C258   N210      1.36633      .   S
    C258   N208      1.34482      .   S
    C257   N209      1.36631      .   S
    C257   N404      1.34467      .   S
    N400   Zn32      2.04012      .   S
    N400   C241      1.34503      .   S
    N401   Zn0       2.04023      .   S
    N401   C242      1.34513      .   S
    H141   C339      1.10102      .   S
    H142   C338      1.10117  1_655   S
    N403   C246      1.46911      .   S
    N403   C242      1.36533      .   S
    N402   C245      1.46912      .   S
    N402   C241      1.36531      .   S
    N210   C254      1.38788      .   S
    N209   C253      1.38787      .   S
    N420   Zn32      2.02274  1_565   S
    N420   C348      1.34410      .   S
    N421   Zn0       2.02289  1_565   S
    N421   C349      1.34487      .   S
    Zn32   O442      1.99160      .   S
    Zn0    O443      1.99158      .   S
    C339   C337      1.52778      .   S
    C339   C340      1.52703      .   S
    C338   C336      1.52779      .   S
    C338   C341      1.52833  1_455   S
    C332   N418      1.36593      .   S
    C332   N416      1.34573      .   S
    C333   N419      1.36553      .   S
    C333   N417      1.34522      .   S
    C246   C248      1.52783      .   S
    C246   H33       1.09542      .   S
    C245   C247      1.52782      .   S
    C245   H31       1.09569      .   S
    C337   N419      1.46893      .   S
    C337   H131      1.09783      .   S
    C336   N418      1.46892      .   S
    C336   H130      1.09780      .   S
    C242   C244      1.48340      .   S
    C241   C243      1.48360      .   S
    C248   H36       1.10122  1_655   S
    C248   H35       1.10105      .   S
    C247   H37       1.10102      .   S
    C247   H34       1.10101      .   S
    Zn4    N208      2.02236      .   S
    Zn4    N417      2.04123      .   S
    Zn4    O471      1.98899      .   S
    Zn3    N404      2.02235      .   S
    Zn3    N416      2.04133      .   S
    Zn3    O470      1.98910      .   S
    N404   C255      1.38980      .   S
    N208   C256      1.38849      .   S
    N423   C349      1.36630      .   S
    N423   C343      1.46852      .   S
    N422   C348      1.36590      .   S
    N422   C342      1.46847      .   S
    H150   C343      1.09787      .   S
    H149   C342      1.09780      .   S
    N419   C331      1.38815      .   S
    N418   C330      1.38816      .   S
    N417   C329      1.38952      .   S
    N416   C328      1.38949      .   S
    C348   C350      1.48360      .   S
    C349   C351      1.48245      .   S
    C343   C341      1.53022      .   S
    C343   H148      1.09805      .   S
    C342   C340      1.53006      .   S
    C342   H147      1.09800      .   S
    C254   C256      1.36680      .   S
    C254   H47       1.08348      .   S
    C253   C255      1.36707      .   S
    C253   H46       1.08347      .   S
    C340   H144      1.10276      .   S
    C340   H145      1.10252      .   S
    C341   H143      1.10238  1_655   S
    C341   H146      1.10176      .   S
    O471   C375      1.30404      .   S
    O470   C374      1.30403      .   S
    C256   H49       1.08539      .   S
    C255   H48       1.08405      .   S
    O442   C101      1.30285      .   S
    O443   C102      1.30190      .   S
    C244   H28       1.10125      .   S
    C244   H26       1.09685      .   S
    C244   H24       1.09822      .   S
    C243   H27       1.10124      .   S
    C243   H25       1.09680      .   S
    C243   H23       1.09817      .   S
    H168   C369      1.09000      .   S
    H167   C368      1.08996      .   S
    C331   C329      1.36930      .   S
    C331   H123      1.08406      .   S
    C330   C328      1.36931      .   S
    C330   H122      1.08402      .   S
    C329   H121      1.08489      .   S
    C328   H120      1.08417      .   S
    H7     C217      1.09071      .   S
    H8     C218      1.09046      .   S
    C351   H160      1.10094      .   S
    C351   H156      1.09686      .   S
    C351   H158      1.09749      .   S
    C350   H159      1.10091      .   S
    C350   H155      1.09676      .   S
    C350   H157      1.09730      .   S
    C102   O441      1.24315  1_545   S
    C102   C216      1.51290      .   S
    C101   O440      1.24282  1_545   S
    C101   C103      1.51204      .   S
    C374   O468      1.24518      .   S
    C374   C366      1.51181      .   S
    C375   O469      1.24469      .   S
    C375   C367      1.51134      .   S
    C369   C366      1.40088      .   S
    C369   C371      1.39279      .   S
    C368   C367      1.40092  1_455   S
    C368   C370      1.39290      .   S
    C217   C103      1.39960      .   S
    C217   C219      1.39093      .   S
    C218   C216      1.39965      .   S
    C218   C220      1.39100      .   S
    H170   C371      1.08955      .   S
    H169   C370      1.08955      .   S
    C367   C365      1.41333      .   S
    C366   C364      1.29604      .   S
    C371   C373      1.39416      .   S
    C370   C372      1.39415      .   S
    C103   C223      1.40860      .   S
    C216   C224      1.40850      .   S
    H9     C220      1.09029      .   S
    H10    C219      1.09038  1_655   S
    H166   C361      1.09392      .   S
    H165   C360      1.09147      .   S
    N438   C360      1.34289      .   S
    N439   C361      1.34285      .   S
