# CIF file generated by openbabel 2.4.90, see http://openbabel.sf.net
data_I
_chemical_name_common ''
_cell_length_a 16.334
_cell_length_b 16.343
_cell_length_c 16.344
_cell_angle_alpha 92.276
_cell_angle_beta 92.425
_cell_angle_gamma 92.394
_space_group_name_H-M_alt 'P 1'
_space_group_name_Hall 'P 1'
loop_
    _symmetry_equiv_pos_as_xyz
    x,y,z
loop_
    _atom_site_label
    _atom_site_type_symbol
    _atom_site_fract_x
    _atom_site_fract_y
    _atom_site_fract_z
    _atom_site_occupancy
    In0     In   0.40931   0.74157   0.15805   1.000
    In1     In   0.15671   0.40826   0.74336   1.000
    In2     In   0.84296   0.25627   0.59174   1.000
    In3     In   0.25769   0.58938   0.84382   1.000
    In4     In   0.59061   0.84222   0.25823   1.000
    In5     In   0.66585   0.33225   0.50084   1.000
    In6     In   0.50007   0.66555   0.33478   1.000
    In7     In   0.33374   0.49909   0.66758   1.000
    In8     In   0.74213   0.15601   0.41064   1.000
