# CIF file generated by openbabel 2.4.90, see http://openbabel.sf.net
data_I
_chemical_name_common ''
_cell_length_a 16.334
_cell_length_b 16.343
_cell_length_c 16.344
_cell_angle_alpha 92.276
_cell_angle_beta 92.425
_cell_angle_gamma 92.394
_space_group_name_H-M_alt 'P 1'
_space_group_name_Hall 'P 1'
loop_
    _symmetry_equiv_pos_as_xyz
    x,y,z
loop_
    _atom_site_label
    _atom_site_type_symbol
    _atom_site_fract_x
    _atom_site_fract_y
    _atom_site_fract_z
    _atom_site_occupancy
    Zr0     Zr   0.74213   0.15601   0.41064   1.000
    Zr1     Zr   0.40931   0.74157   0.15805   1.000
    Zr2     Zr   0.15671   0.40826   0.74336   1.000
    Zr3     Zr   0.84296   0.25627   0.59174   1.000
    Zr4     Zr   0.25769   0.58938   0.84382   1.000
    Zr5     Zr   0.59061   0.84222   0.25823   1.000
    Zr6     Zr   0.66585   0.33225   0.50084   1.000
    Zr7     Zr   0.50007   0.66555   0.33478   1.000
    Zr8     Zr   0.33374   0.49909   0.66758   1.000
    N9      N    0.76058   0.61016   0.86073   1.000
    O10     O    0.57470   0.56506   0.78203   1.000
    O11     O    0.54264   0.59480   0.85741   1.000
    O12     O    0.97648   0.60623   0.84782   1.000
    O13     O    0.93513   0.53048   0.81152   1.000
    N14     N    0.38917   0.23883   0.14029   1.000
    O15     O    0.40448   0.45679   0.14430   1.000
    O16     O    0.43416   0.42464   0.21982   1.000
    O17     O    0.39238   0.02274   0.15303   1.000
    O18     O    0.46823   0.06376   0.18953   1.000
    N19     N    0.00000   0.63646   0.36345   1.000
    O20     O    0.78138   0.64092   0.34878   1.000
    O21     O    0.18207   0.67793   0.28362   1.000
    O22     O    0.21866   0.65124   0.35914   1.000
    O23     O    0.81790   0.71637   0.32181   1.000
    N24     N    0.61095   0.85961   0.76150   1.000
    O25     O    0.60754   0.84677   0.97733   1.000
    O26     O    0.53173   0.81003   0.93644   1.000
    O27     O    0.56601   0.78037   0.57564   1.000
    O28     O    0.59627   0.85578   0.54338   1.000
    N29     N    0.63784   0.36234   0.00060   1.000
    O30     O    0.64173   0.34756   0.78203   1.000
    O31     O    0.65205   0.35715   0.21926   1.000
    O32     O    0.67888   0.28183   0.18281   1.000
    O33     O    0.71735   0.32069   0.81850   1.000
    N34     N    0.23920   0.13913   0.38971   1.000
    O35     O    0.42503   0.21781   0.43475   1.000
    O36     O    0.45717   0.14242   0.40510   1.000
    O37     O    0.06464   0.18830   0.46946   1.000
    O38     O    0.02330   0.15206   0.39372   1.000
    N39     N    0.86064   0.75895   0.61127   1.000
    O40     O    0.78152   0.57292   0.56626   1.000
    O41     O    0.81107   0.93408   0.53236   1.000
    O42     O    0.84760   0.97499   0.60817   1.000
    O43     O    0.85711   0.54097   0.59666   1.000
    N44     N    0.36194   0.99925   0.63763   1.000
    O45     O    0.28222   0.18130   0.67918   1.000
    O46     O    0.32096   0.81713   0.71810   1.000
    O47     O    0.34772   0.78063   0.64279   1.000
    O48     O    0.35782   0.21779   0.65243   1.000
    N49     N    0.13934   0.38866   0.24055   1.000
    O50     O    0.21836   0.43368   0.42667   1.000
    O51     O    0.15233   0.39181   0.02457   1.000
    O52     O    0.14280   0.40332   0.45855   1.000
    O53     O    0.18890   0.46760   0.06558   1.000
    N54     N    0.75149   0.24651   0.50145   1.000
    O55     O    0.74915   0.22388   0.47875   1.000
    O56     O    0.77436   0.24895   0.52402   1.000
    O57     O    0.73008   0.26794   0.50130   1.000
    N58     N    0.70415   0.99970   0.29618   1.000
    O59     O    0.72157   0.05437   0.32879   1.000
    O60     O    0.67175   0.94478   0.27871   1.000
    N61     N    0.29532   0.70264   0.00081   1.000
    O62     O    0.27810   0.67056   0.94588   1.000
    O63     O    0.32764   0.72004   0.05585   1.000
    N64     N    0.49911   0.75224   0.24990   1.000
    O65     O    0.52198   0.77474   0.25198   1.000
    O66     O    0.47666   0.74957   0.22694   1.000
    O67     O    0.49935   0.73057   0.27112   1.000
    N68     N    0.99984   0.29412   0.70581   1.000
    O69     O    0.94487   0.27696   0.67357   1.000
    O70     O    0.05483   0.32641   0.72287   1.000
    N71     N    0.24772   0.49898   0.75293   1.000
    O72     O    0.22497   0.47630   0.75054   1.000
    O73     O    0.25021   0.52158   0.77565   1.000
    O74     O    0.26923   0.49901   0.73159   1.000
loop_
    _geom_bond_atom_site_label_1
    _geom_bond_atom_site_label_2
    _geom_bond_distance
    _geom_bond_site_symmetry_2
    _ccdc_geom_bond_type
    N9     O10       3.28987      .   S
    Zr8    O10       4.36062      .   S
    N9     O11       3.55619      .   S
    Zr4    O11       4.64727      .   S
    N9     O12       3.54482      .   S
    Zr4    O12       4.61600  1_455   S
    N9     O13       3.30030      .   S
    Zr2    O13       4.37009  1_455   S
    N14    O15       3.55832      .   S
    Zr1    O15       4.64785      .   S
    N14    O16       3.29702      .   S
    Zr7    O16       4.36781      .   S
    N14    O17       3.54828      .   S
    Zr1    O17       4.61881  1_565   S
    N14    O18       3.30235      .   S
    Zr5    O18       4.37058  1_565   S
    N19    O20       3.57291  1_455   S
    Zr7    O20       4.62597      .   S
    N19    O21       3.35203      .   S
    Zr1    O21       4.42293      .   S
    N19    O22       3.57353      .   S
    Zr7    O22       4.62753      .   S
    N19    O23       3.35264  1_455   S
    Zr5    O23       4.42429      .   S
    N24    O25       3.54472      .   S
    Zr5    O25       4.61430  1_554   S
    N24    O26       3.30387      .   S
    Zr1    O26       4.37228  1_554   S
    N24    O27       3.29602      .   S
    Zr7    O27       4.36623      .   S
    N24    O28       3.56083      .   S
    Zr5    O28       4.65377      .   S
    N29    O30       3.57428  1_554   S
    Zr6    O30       4.62703      .   S
    N29    O31       3.57609      .   S
    Zr6    O31       4.63299      .   S
    N29    O32       3.35634      .   S
    Zr0    O32       4.42959      .   S
    N29    O33       3.35381  1_554   S
    Zr3    O33       4.42360      .   S
    N34    O35       3.28906      .   S
    Zr6    O35       4.35924      .   S
    N34    O36       3.55644      .   S
    Zr0    O36       4.64754      .   S
    N34    O37       3.30112      .   S
    Zr3    O37       4.37155  1_655   S
    N34    O38       3.54487      .   S
    Zr0    O38       4.61560  1_655   S
    N39    O40       3.29667      .   S
    Zr6    O40       4.36552      .   S
    N39    O41       3.30294      .   S
    Zr0    O41       4.37099  1_545   S
    N39    O42       3.54827      .   S
    Zr3    O42       4.61892  1_545   S
    N39    O43       3.55892      .   S
    Zr3    O43       4.64628      .   S
    N44    O45       3.35362  1_565   S
    Zr2    O45       4.42381      .   S
    N44    O46       3.35504      .   S
    Zr4    O46       4.42828      .   S
    N44    O47       3.57547      .   S
    Zr8    O47       4.63196      .   S
    N44    O48       3.57380  1_565   S
    Zr8    O48       4.62811      .   S
    N49    O50       3.29717      .   S
    Zr8    O50       4.36662      .   S
    N49    O51       3.54752      .   S
    Zr2    O51       4.61803  1_556   S
    N49    O52       3.55940      .   S
    Zr2    O52       4.64824      .   S
    N49    O53       3.30132      .   S
    Zr4    O53       4.36938  1_556   S
    N54    O55       0.51240      .   S
    Zr0    O55       1.53721      .   S
    N54    O56       0.51297      .   S
    Zr3    O56       1.53892      .   S
    N54    O57       0.50526      .   S
    Zr6    O57       1.51579      .   S
    N58    O59       1.04469  1_565   S
    Zr0    O59       2.09785      .   S
    N58    O60       1.04608      .   S
    Zr5    O60       2.10010      .   S
    N61    O62       1.04353  1_554   S
    Zr4    O62       2.09617      .   S
    N61    O63       1.04671      .   S
    Zr1    O63       2.10216      .   S
    N64    O65       0.51225      .   S
    Zr5    O65       1.53674      .   S
    N64    O66       0.51277      .   S
    Zr1    O66       1.53830      .   S
    N64    O67       0.50549      .   S
    Zr7    O67       1.51648      .   S
    N68    O69       1.04404      .   S
    Zr3    O69       2.09812      .   S
    N68    O70       1.04412  1_655   S
    Zr2    O70       2.09818      .   S
    N71    O72       0.51298      .   S
    Zr2    O72       1.53893      .   S
    N71    O73       0.51242      .   S
    Zr4    O73       1.53725      .   S
    N71    O74       0.50534      .   S
    Zr8    O74       1.51602      .   S
