# CIF file generated by openbabel 2.4.90, see http://openbabel.sf.net
data_I
_chemical_name_common ''
_cell_length_a 16.334
_cell_length_b 16.343
_cell_length_c 16.344
_cell_angle_alpha 92.276
_cell_angle_beta 92.425
_cell_angle_gamma 92.394
_space_group_name_H-M_alt 'P 1'
_space_group_name_Hall 'P 1'
loop_
    _symmetry_equiv_pos_as_xyz
    x,y,z
loop_
    _atom_site_label
    _atom_site_type_symbol
    _atom_site_fract_x
    _atom_site_fract_y
    _atom_site_fract_z
    _atom_site_occupancy
    C0      C    0.74213   0.15601   0.41064   1.000
    C1      C    0.40931   0.74157   0.15805   1.000
    C2      C    0.15671   0.40826   0.74336   1.000
    C3      C    0.84296   0.25627   0.59174   1.000
    C4      C    0.25769   0.58938   0.84382   1.000
    C5      C    0.59061   0.84222   0.25823   1.000
    C6      C    0.66585   0.33225   0.50084   1.000
    C7      C    0.50007   0.66555   0.33478   1.000
    C8      C    0.33374   0.49909   0.66758   1.000
    C9      C    0.50014   0.02845   0.38736   1.000
    C10     C    0.35795   0.97748   0.34262   1.000
    C11     C    0.27517   0.22389   0.36344   1.000
    C12     C    0.41604   0.27383   0.41150   1.000
    C13     C    0.96589   0.12250   0.28367   1.000
    C14     C    0.09991   0.07215   0.23550   1.000
    C15     C    0.21169   0.13057   0.47517   1.000
    C16     C    0.07944   0.18293   0.52134   1.000
    C17     C    0.66483   0.22903   0.17285   1.000
    C18     C    0.62226   0.27246   0.03322   1.000
    C19     C    0.59288   0.51738   0.13137   1.000
    C20     C    0.63107   0.47299   0.27129   1.000
    C21     C    0.38809   0.50076   0.03101   1.000
    C22     C    0.34359   0.35909   0.97905   1.000
    C23     C    0.36365   0.27434   0.22493   1.000
    C24     C    0.41145   0.41475   0.27594   1.000
    C25     C    0.28144   0.96635   0.12160   1.000
    C26     C    0.23472   0.10105   0.07150   1.000
    C27     C    0.47517   0.21037   0.13209   1.000
    C28     C    0.51992   0.07743   0.18410   1.000
    C29     C    0.17278   0.66333   0.23087   1.000
    C30     C    0.03310   0.61950   0.27316   1.000
    C31     C    0.13007   0.59158   0.51906   1.000
    C32     C    0.27011   0.63092   0.47584   1.000
    C33     C    0.02887   0.38658   0.50164   1.000
    C34     C    0.97776   0.34239   0.35952   1.000
    C35     C    0.22424   0.36415   0.27672   1.000
    C36     C    0.27432   0.41188   0.41740   1.000
    C37     C    0.12158   0.28126   0.96806   1.000
    C38     C    0.07120   0.23436   0.10250   1.000
    C39     C    0.13146   0.47455   0.21190   1.000
    C40     C    0.18381   0.51944   0.07910   1.000
    C41     C    0.22874   0.17252   0.66357   1.000
    C42     C    0.27045   0.03275   0.61979   1.000
    C43     C    0.51675   0.12865   0.59192   1.000
    C44     C    0.47413   0.26884   0.63132   1.000
    C45     C    0.97118   0.49783   0.61328   1.000
    C46     C    0.02223   0.63997   0.65742   1.000
    C47     C    0.77567   0.72274   0.63575   1.000
    C48     C    0.72565   0.58194   0.58807   1.000
    C49     C    0.87861   0.03150   0.71866   1.000
    C50     C    0.92887   0.89689   0.76554   1.000
    C51     C    0.86825   0.78760   0.52530   1.000
    C52     C    0.81600   0.92046   0.48050   1.000
    C53     C    0.77073   0.33628   0.82687   1.000
    C54     C    0.72948   0.38002   0.96679   1.000
    C55     C    0.48291   0.40806   0.87158   1.000
    C56     C    0.52506   0.36870   0.73123   1.000
    C57     C    0.49967   0.61243   0.97129   1.000
    C58     C    0.64179   0.65718   0.02229   1.000
    C59     C    0.72460   0.63641   0.77597   1.000
    C60     C    0.58379   0.58825   0.72596   1.000
    C61     C    0.03382   0.71630   0.87751   1.000
    C62     C    0.89978   0.76446   0.92782   1.000
    C63     C    0.78817   0.52474   0.86940   1.000
    C64     C    0.92044   0.47861   0.81707   1.000
    C65     C    0.33521   0.82718   0.77094   1.000
    C66     C    0.37783   0.96677   0.72747   1.000
    C67     C    0.40736   0.86845   0.48266   1.000
    C68     C    0.36908   0.72860   0.52707   1.000
    C69     C    0.61294   0.96921   0.49973   1.000
    C70     C    0.65677   0.02114   0.64161   1.000
    C71     C    0.63635   0.77518   0.72615   1.000
    C72     C    0.58899   0.72425   0.58556   1.000
    C73     C    0.71781   0.87773   0.03418   1.000
    C74     C    0.76486   0.92826   0.89983   1.000
    C75     C    0.52462   0.86816   0.78970   1.000
    C76     C    0.47957   0.81558   0.92236   1.000
    C77     C    0.82722   0.76912   0.33642   1.000
    C78     C    0.96689   0.72681   0.38040   1.000
    C79     C    0.86994   0.48096   0.40844   1.000
    C80     C    0.72989   0.52423   0.36900   1.000
    C81     C    0.54999   0.18521   0.43219   1.000
    C82     C    0.46675   0.15441   0.40280   1.000
    C83     C    0.45068   0.07086   0.38257   1.000
    C84     C    0.37188   0.04223   0.35760   1.000
    C85     C    0.30909   0.09747   0.35139   1.000
    C86     C    0.32450   0.18142   0.36924   1.000
    C87     C    0.40297   0.20913   0.39575   1.000
    C88     C    0.93535   0.18502   0.43440   1.000
    C89     C    0.01467   0.15604   0.40531   1.000
    C90     C    0.02025   0.12438   0.32476   1.000
    C91     C    0.09414   0.09647   0.29792   1.000
    C92     C    0.16277   0.09916   0.35220   1.000
    C93     C    0.15813   0.12962   0.43312   1.000
    C94     C    0.08430   0.15852   0.45887   1.000
    C95     C    0.67387   0.31949   0.31436   1.000
    C96     C    0.65133   0.34788   0.23118   1.000
    C97     C    0.64899   0.29212   0.16328   1.000
    C98     C    0.62564   0.31632   0.08533   1.000
    C99     C    0.60581   0.39791   0.07466   1.000
    C100    C    0.60875   0.45441   0.14142   1.000
    C101    C    0.63050   0.42923   0.21931   1.000
    C102    C    0.43209   0.54960   0.18810   1.000
    C103    C    0.40313   0.46647   0.15685   1.000
    C104    C    0.38322   0.45100   0.07312   1.000
    C105    C    0.35837   0.37245   0.04390   1.000
    C106    C    0.35191   0.30920   0.09868   1.000
    C107    C    0.36956   0.32397   0.18277   1.000
    C108    C    0.39595   0.40222   0.21109   1.000
    C109    C    0.43190   0.93407   0.18522   1.000
    C110    C    0.40343   0.01379   0.15629   1.000
    C111    C    0.32306   0.02030   0.12408   1.000
    C112    C    0.29699   0.09460   0.09628   1.000
    C113    C    0.35186   0.16277   0.09963   1.000
    C114    C    0.43261   0.15720   0.13064   1.000
    C115    C    0.45758   0.08296   0.15939   1.000
    C116    C    0.31383   0.67345   0.32200   1.000
    C117    C    0.23056   0.65050   0.35029   1.000
    C118    C    0.16294   0.64749   0.29392   1.000
    C119    C    0.08498   0.62344   0.31746   1.000
    C120    C    0.07397   0.60363   0.39901   1.000
    C121    C    0.14038   0.60737   0.45612   1.000
    C122    C    0.21835   0.62978   0.43160   1.000
    C123    C    0.18567   0.43105   0.55175   1.000
    C124    C    0.15490   0.40249   0.46829   1.000
    C125    C    0.07127   0.38219   0.45219   1.000
    C126    C    0.04257   0.35750   0.37340   1.000
    C127    C    0.09778   0.35151   0.31068   1.000
    C128    C    0.18177   0.36967   0.32603   1.000
    C129    C    0.20957   0.39599   0.40440   1.000
    C130    C    0.18520   0.43159   0.93610   1.000
    C131    C    0.15611   0.40305   0.01559   1.000
    C132    C    0.12390   0.32273   0.02198   1.000
    C133    C    0.09598   0.29659   0.09617   1.000
    C134    C    0.09922   0.35137   0.16427   1.000
    C135    C    0.13018   0.43210   0.15870   1.000
    C136    C    0.15906   0.45713   0.08467   1.000
    C137    C    0.32095   0.31304   0.67396   1.000
    C138    C    0.34842   0.22976   0.65080   1.000
    C139    C    0.29175   0.16242   0.64777   1.000
    C140    C    0.31496   0.08443   0.62376   1.000
    C141    C    0.39646   0.07313   0.60397   1.000
    C142    C    0.45387   0.13926   0.60770   1.000
    C143    C    0.42969   0.21727   0.63011   1.000
    C144    C    0.81433   0.44773   0.56890   1.000
    C145    C    0.84512   0.53117   0.59744   1.000
    C146    C    0.92875   0.54726   0.61770   1.000
    C147    C    0.95742   0.62602   0.64236   1.000
    C148    C    0.90216   0.68877   0.64837   1.000
    C149    C    0.81816   0.67343   0.63024   1.000
    C150    C    0.79040   0.59498   0.60395   1.000
    C151    C    0.81487   0.06358   0.56838   1.000
    C152    C    0.84390   0.98399   0.59688   1.000
    C153    C    0.87618   0.97755   0.67719   1.000
    C154    C    0.90406   0.90331   0.70332   1.000
    C155    C    0.90070   0.83520   0.64854   1.000
    C156    C    0.86965   0.84073   0.56784   1.000
    C157    C    0.84082   0.91490   0.54282   1.000
    C158    C    0.67817   0.32604   0.68660   1.000
    C159    C    0.65088   0.34915   0.76995   1.000
    C160    C    0.70775   0.35210   0.83715   1.000
    C161    C    0.68480   0.37608   0.91524   1.000
    C162    C    0.60335   0.39592   0.92676   1.000
    C163    C    0.54574   0.39224   0.86079   1.000
    C164    C    0.56966   0.36985   0.78268   1.000
    C165    C    0.44981   0.56754   0.81457   1.000
    C166    C    0.53306   0.59695   0.84535   1.000
    C167    C    0.54912   0.61721   0.92800   1.000
    C168    C    0.62789   0.64221   0.95756   1.000
    C169    C    0.69067   0.64847   0.90237   1.000
    C170    C    0.67528   0.63059   0.81842   1.000
    C171    C    0.59684   0.60402   0.79066   1.000
    C172    C    0.06446   0.56556   0.81497   1.000
    C173    C    0.98512   0.59466   0.84396   1.000
    C174    C    0.97949   0.67521   0.87560   1.000
    C175    C    0.90559   0.70204   0.90351   1.000
    C176    C    0.83700   0.64773   0.90080   1.000
    C177    C    0.84170   0.56681   0.87030   1.000
    C178    C    0.91554   0.54108   0.84147   1.000
    C179    C    0.32612   0.68564   0.68050   1.000
    C180    C    0.34876   0.76879   0.65214   1.000
    C181    C    0.35110   0.83671   0.70786   1.000
    C182    C    0.37447   0.91463   0.68365   1.000
    C183    C    0.39433   0.92525   0.60207   1.000
    C184    C    0.39146   0.85846   0.54562   1.000
    C185    C    0.36966   0.78060   0.57080   1.000
    C186    C    0.56921   0.81212   0.45058   1.000
    C187    C    0.59766   0.84337   0.53392   1.000
    C188    C    0.61753   0.92709   0.54950   1.000
    C189    C    0.64202   0.95626   0.62815   1.000
    C190    C    0.64825   0.90143   0.69137   1.000
    C191    C    0.63061   0.81736   0.67652   1.000
    C192    C    0.60448   0.78909   0.59817   1.000
    C193    C    0.56761   0.81392   0.06587   1.000
    C194    C    0.59597   0.84322   0.98630   1.000
    C195    C    0.67634   0.87549   0.98015   1.000
    C196    C    0.70257   0.90352   0.90604   1.000
    C197    C    0.64786   0.90036   0.83774   1.000
    C198    C    0.56706   0.86940   0.84301   1.000
    C199    C    0.54193   0.84038   0.91707   1.000
    C200    C    0.68619   0.67763   0.32624   1.000
    C201    C    0.76944   0.64975   0.34931   1.000
    C202    C    0.83706   0.70608   0.35232   1.000
    C203    C    0.91502   0.68253   0.37645   1.000
    C204    C    0.92604   0.60099   0.39633   1.000
    C205    C    0.85962   0.54390   0.39261   1.000
    C206    C    0.78165   0.56844   0.37013   1.000
    C207    C    0.68853   0.99953   0.31212   1.000
    C208    C    0.31127   0.68702   0.00065   1.000
    C209    C    0.99981   0.30993   0.69003   1.000
    C210    C    0.55586   0.26074   0.45875   1.000
    C211    C    0.60812   0.13543   0.43032   1.000
    C212    C    0.23294   0.06583   0.32295   1.000
    C213    C    0.93720   0.21869   0.50669   1.000
    C214    C    0.87267   0.17399   0.38482   1.000
    C215    C    0.66669   0.37167   0.37500   1.000
    C216    C    0.69772   0.24665   0.31940   1.000
    C217    C    0.73583   0.06207   0.31215   1.000
    C218    C    0.45824   0.55535   0.26391   1.000
    C219    C    0.43029   0.60794   0.13858   1.000
    C220    C    0.32337   0.23340   0.06633   1.000
    C221    C    0.50399   0.93515   0.21932   1.000
    C222    C    0.38187   0.87175   0.17350   1.000
    C223    C    0.37457   0.66648   0.37487   1.000
    C224    C    0.31897   0.69724   0.24954   1.000
    C225    C    0.31062   0.73331   0.06371   1.000
    C226    C    0.26103   0.45833   0.55799   1.000
    C227    C    0.13580   0.42770   0.60973   1.000
    C228    C    0.06588   0.32285   0.23478   1.000
    C229    C    0.21920   0.50371   0.93742   1.000
    C230    C    0.17394   0.38164   0.87383   1.000
    C231    C    0.37365   0.37357   0.66687   1.000
    C232    C    0.24831   0.31844   0.69811   1.000
    C233    C    0.06291   0.30911   0.73650   1.000
    C234    C    0.73897   0.44153   0.54166   1.000
    C235    C    0.86418   0.38970   0.57238   1.000
    C236    C    0.93403   0.76466   0.67708   1.000
    C237    C    0.78087   0.06242   0.49626   1.000
    C238    C    0.82617   0.12580   0.61841   1.000
    C239    C    0.62539   0.33331   0.62609   1.000
    C240    C    0.75075   0.30182   0.68106   1.000
    C241    C    0.93681   0.26334   0.69091   1.000
    C242    C    0.44391   0.54084   0.73908   1.000
    C243    C    0.39171   0.56952   0.86435   1.000
    C244    C    0.76680   0.67697   0.93408   1.000
    C245    C    0.06264   0.49332   0.78128   1.000
    C246    C    0.12708   0.61522   0.82600   1.000
    C247    C    0.33326   0.62490   0.62831   1.000
    C248    C    0.30226   0.68063   0.75333   1.000
    C249    C    0.26408   0.68758   0.93807   1.000
    C250    C    0.54208   0.73671   0.44476   1.000
    C251    C    0.57259   0.86167   0.39228   1.000
    C252    C    0.67657   0.93373   0.76726   1.000
    C253    C    0.49573   0.77932   0.06472   1.000
    C254    C    0.61767   0.82563   0.12810   1.000
    C255    C    0.62543   0.62524   0.33343   1.000
    C256    C    0.68098   0.75034   0.30209   1.000
    C257    C    0.68810   0.93751   0.26426   1.000
    C258    C    0.75149   0.24651   0.50145   1.000
    C259    C    0.49911   0.75224   0.24990   1.000
    C260    C    0.24772   0.49898   0.75293   1.000
    C261    C    0.57665   0.42602   0.00077   1.000
    C262    C    0.00002   0.57367   0.42630   1.000
    C263    C    0.42340   0.99916   0.57395   1.000
    O264    O    0.31094   0.71017   0.03218   1.000
    O265    O    0.28767   0.68730   0.96936   1.000
    O266    O    0.59123   0.41197   0.03771   1.000
    O267    O    0.59000   0.41097   0.96376   1.000
    O268    O    0.14001   0.36289   0.01879   1.000
    O269    O    0.15759   0.43009   0.05013   1.000
    O270    O    0.17066   0.41732   0.97585   1.000
    O271    O    0.10994   0.30966   0.05908   1.000
    O272    O    0.12274   0.30199   0.99502   1.000
    O273    O    0.63484   0.64969   0.98993   1.000
    O274    O    0.38565   0.47588   0.05207   1.000
    O275    O    0.62395   0.29439   0.05928   1.000
    O276    O    0.69708   0.87661   0.00717   1.000
    O277    O    0.37080   0.41172   0.05851   1.000
    O278    O    0.35514   0.34083   0.07129   1.000
    O279    O    0.35098   0.36577   0.01148   1.000
    O280    O    0.35996   0.73744   0.11088   1.000
    O281    O    0.53167   0.79662   0.06529   1.000
    O282    O    0.59264   0.81978   0.09699   1.000
    O283    O    0.58179   0.82857   0.02609   1.000
    O284    O    0.33764   0.27130   0.08251   1.000
    O285    O    0.33761   0.19809   0.08298   1.000
    O286    O    0.26586   0.09783   0.08389   1.000
    O287    O    0.39318   0.45873   0.11498   1.000
    O288    O    0.61573   0.35711   0.07999   1.000
    O289    O    0.60728   0.42616   0.10804   1.000
    O290    O    0.17143   0.48829   0.08189   1.000
    O291    O    0.14462   0.44461   0.12169   1.000
    O292    O    0.63732   0.30422   0.12431   1.000
    O293    O    0.08359   0.26547   0.09933   1.000
    O294    O    0.09760   0.32398   0.13022   1.000
    O295    O    0.32442   0.12869   0.09796   1.000
    O296    O    0.31003   0.05745   0.11018   1.000
    O297    O    0.36074   0.31658   0.14072   1.000
    O298    O    0.39223   0.15999   0.11514   1.000
    O299    O    0.30225   0.99332   0.12284   1.000
    O300    O    0.36324   0.01704   0.14019   1.000
    O301    O    0.60414   0.83393   0.19317   1.000
    O302    O    0.45389   0.18379   0.13137   1.000
    O303    O    0.44510   0.12008   0.14502   1.000
    O304    O    0.60081   0.48589   0.13639   1.000
    O305    O    0.43119   0.57877   0.16334   1.000
    O306    O    0.61963   0.44182   0.18037   1.000
    O307    O    0.43050   0.04837   0.15784   1.000
    O308    O    0.41766   0.97393   0.17075   1.000
    O309    O    0.41761   0.50803   0.17247   1.000
    O310    O    0.39954   0.43434   0.18397   1.000
    O311    O    0.39559   0.80666   0.16578   1.000
    O312    O    0.11470   0.39173   0.16148   1.000
    O313    O    0.13082   0.45332   0.18530   1.000
    O314    O    0.48875   0.08019   0.17175   1.000
    O315    O    0.65691   0.26058   0.16807   1.000
    O316    O    0.65016   0.32000   0.19723   1.000
    O317    O    0.08255   0.33711   0.19953   1.000
    O318    O    0.40688   0.90291   0.17936   1.000
    O319    O    0.38276   0.36309   0.19693   1.000
    O320    O    0.36661   0.29915   0.20385   1.000
    O321    O    0.46794   0.93461   0.20227   1.000
    O322    O    0.44516   0.55247   0.22600   1.000
    O323    O    0.40370   0.40848   0.24352   1.000
    O324    O    0.64092   0.38855   0.22525   1.000
    O325    O    0.63078   0.45111   0.24530   1.000
    O326    O    0.16786   0.65541   0.26239   1.000
    O327    O    0.66260   0.33368   0.27277   1.000
    O328    O    0.08183   0.33718   0.27273   1.000
    O329    O    0.09703   0.08431   0.26671   1.000
    O330    O    0.31640   0.68535   0.28577   1.000
    O331    O    0.54486   0.79723   0.25407   1.000
    O332    O    0.49959   0.70889   0.29234   1.000
    O333    O    0.63935   0.88986   0.26125   1.000
    O334    O    0.47915   0.61045   0.29935   1.000
    O335    O    0.68832   0.96852   0.28819   1.000
    O336    O    0.05904   0.62147   0.29531   1.000
    O337    O    0.20301   0.36691   0.30138   1.000
    O338    O    0.99307   0.12344   0.30422   1.000
    O339    O    0.12396   0.63547   0.30569   1.000
    O340    O    0.19675   0.64900   0.32211   1.000
    O341    O    0.05720   0.11043   0.31134   1.000
    O342    O    0.12845   0.09782   0.32506   1.000
    O343    O    0.68358   0.71399   0.31417   1.000
    O344    O    0.13978   0.36059   0.31835   1.000
    O345    O    0.07017   0.35451   0.34204   1.000
    O346    O    0.71218   0.03080   0.31214   1.000
    O347    O    0.73898   0.10904   0.36140   1.000
    O348    O    0.68580   0.28307   0.31688   1.000
    O349    O    0.67028   0.34558   0.34468   1.000
    O350    O    0.07947   0.61353   0.35824   1.000
    O351    O    0.27219   0.66198   0.33615   1.000
    O352    O    0.34420   0.66997   0.34843   1.000
    O353    O    0.27102   0.08165   0.33717   1.000
    O354    O    0.19785   0.08249   0.33758   1.000
    O355    O    0.01746   0.14021   0.36503   1.000
    O356    O    0.19567   0.38283   0.36522   1.000
    O357    O    0.65581   0.65143   0.32984   1.000
    O358    O    0.72782   0.66369   0.33777   1.000
    O359    O    0.52108   0.70113   0.38977   1.000
    O360    O    0.83214   0.73760   0.34437   1.000
    O361    O    0.36492   0.00985   0.35011   1.000
    O362    O    0.80325   0.67791   0.35082   1.000
    O363    O    0.77555   0.60909   0.35972   1.000
    O364    O    0.22446   0.64014   0.39094   1.000
    O365    O    0.34049   0.06985   0.35450   1.000
    O366    O    0.31680   0.13945   0.36032   1.000
    O367    O    0.16045   0.11439   0.39266   1.000
    O368    O    0.87604   0.69430   0.36439   1.000
    O369    O    0.41128   0.05654   0.37009   1.000
    O370    O    0.01016   0.34995   0.36646   1.000
    O371    O    0.29984   0.20265   0.36634   1.000
    O372    O    0.75577   0.54634   0.36957   1.000
    O373    O    0.36374   0.19528   0.38250   1.000
    O374    O    0.82064   0.55617   0.38137   1.000
    O375    O    0.05692   0.36984   0.41279   1.000
    O376    O    0.94095   0.70467   0.37843   1.000
    O377    O    0.92053   0.64176   0.38639   1.000
    O378    O    0.47541   0.04966   0.38497   1.000
    O379    O    0.45871   0.11263   0.39269   1.000
    O380    O    0.80740   0.16500   0.39773   1.000
    O381    O    0.90401   0.17950   0.40961   1.000
    O382    O    0.57090   0.83690   0.42143   1.000
    O383    O    0.89283   0.57244   0.39447   1.000
    O384    O    0.86478   0.51243   0.40053   1.000
    O385    O    0.43486   0.18177   0.39927   1.000
    O386    O    0.40951   0.24148   0.40363   1.000
    O387    O    0.96303   0.58733   0.41132   1.000
    O388    O    0.03699   0.58865   0.41265   1.000
    O389    O    0.10718   0.60550   0.42757   1.000
    O390    O    0.50837   0.16981   0.41750   1.000
    O391    O    0.24194   0.40394   0.41090   1.000
    O392    O    0.18223   0.39924   0.43635   1.000
    O393    O    0.97501   0.17053   0.41986   1.000
    O394    O    0.04949   0.15728   0.43209   1.000
    O395    O    0.74681   0.20126   0.45604   1.000
    O396    O    0.57906   0.16032   0.43126   1.000
    O397    O    0.17937   0.61857   0.44386   1.000
    O398    O    0.24423   0.63035   0.45372   1.000
    O399    O    0.55292   0.22297   0.44547   1.000
    O400    O    0.12121   0.14408   0.44600   1.000
    O401    O    0.18491   0.13010   0.45415   1.000
    O402    O    0.93628   0.20186   0.47054   1.000
    O403    O    0.55565   0.77442   0.44767   1.000
    O404    O    0.58344   0.82775   0.49225   1.000
    O405    O    0.11308   0.39234   0.46024   1.000
    O406    O    0.05007   0.38438   0.47692   1.000
    O407    O    0.13522   0.59947   0.48759   1.000
    O408    O    0.61085   0.29649   0.47980   1.000
    O409    O    0.08187   0.17073   0.49011   1.000
    O410    O    0.17028   0.41677   0.51002   1.000
    O411    O    0.82841   0.91768   0.51166   1.000
    O412    O    0.39941   0.86346   0.51414   1.000
    O413    O    0.79787   0.06300   0.53232   1.000
    O414    O    0.61523   0.94815   0.52462   1.000
    O415    O    0.70867   0.28938   0.50115   1.000
    O416    O    0.70241   0.38689   0.52125   1.000
    O417    O    0.86895   0.81417   0.54657   1.000
    O418    O    0.36937   0.75460   0.54894   1.000
    O419    O    0.60760   0.88523   0.54171   1.000
    O420    O    0.60107   0.81623   0.56605   1.000
    O421    O    0.77665   0.44463   0.55528   1.000
    O422    O    0.85524   0.87781   0.55533   1.000
    O423    O    0.84236   0.94944   0.56985   1.000
    O424    O    0.38056   0.81953   0.55821   1.000
    O425    O    0.39289   0.89186   0.57385   1.000
    O426    O    0.62978   0.94167   0.58883   1.000
    O427    O    0.22335   0.44469   0.55487   1.000
    O428    O    0.16073   0.42938   0.58074   1.000
    O429    O    0.29739   0.47871   0.61278   1.000
    O430    O    0.88518   0.83797   0.60819   1.000
    O431    O    0.82939   0.02378   0.58263   1.000
    O432    O    0.82052   0.09469   0.59340   1.000
    O433    O    0.83926   0.41871   0.57064   1.000
    O434    O    0.82972   0.48945   0.58317   1.000
    O435    O    0.35921   0.77469   0.61147   1.000
    O436    O    0.40886   0.96221   0.58801   1.000
    O437    O    0.40993   0.03615   0.58896   1.000
    O438    O    0.59674   0.75667   0.59186   1.000
    O439    O    0.75803   0.58846   0.59601   1.000
    O440    O    0.83457   0.19103   0.60508   1.000
    O441    O    0.88989   0.25980   0.64133   1.000
    O442    O    0.48531   0.13395   0.59981   1.000
    O443    O    0.86004   0.98077   0.63704   1.000
    O444    O    0.81776   0.56307   0.60069   1.000
    O445    O    0.88693   0.53921   0.60757   1.000
    O446    O    0.61755   0.80322   0.63734   1.000
    O447    O    0.38440   0.91994   0.64286   1.000
    O448    O    0.80428   0.63420   0.61710   1.000
    O449    O    0.42516   0.10619   0.60584   1.000
    O450    O    0.35571   0.07878   0.61387   1.000
    O451    O    0.44178   0.17826   0.61891   1.000
    O452    O    0.94996   0.52254   0.61549   1.000
    O453    O    0.94308   0.58664   0.63003   1.000
    O454    O    0.29271   0.05859   0.62177   1.000
    O455    O    0.30336   0.12342   0.63577   1.000
    O456    O    0.65178   0.32967   0.65635   1.000
    O457    O    0.64940   0.98870   0.63488   1.000
    O458    O    0.64514   0.92884   0.65976   1.000
    O459    O    0.32969   0.65527   0.65441   1.000
    O460    O    0.45191   0.24305   0.63071   1.000
    O461    O    0.38906   0.22351   0.64045   1.000
    O462    O    0.79692   0.69809   0.63299   1.000
    O463    O    0.86016   0.68110   0.63931   1.000
    O464    O    0.92979   0.65740   0.64537   1.000
    O465    O    0.98983   0.63299   0.64989   1.000
    O466    O    0.32009   0.19609   0.64929   1.000
    O467    O    0.26025   0.16747   0.65567   1.000
    O468    O    0.91809   0.72672   0.66273   1.000
    O469    O    0.91737   0.79993   0.66281   1.000
    O470    O    0.90238   0.86926   0.67593   1.000
    O471    O    0.33468   0.27140   0.66238   1.000
    O472    O    0.33744   0.72721   0.66632   1.000
    O473    O    0.34993   0.80275   0.68000   1.000
    O474    O    0.34730   0.34331   0.67041   1.000
    O475    O    0.38882   0.51997   0.70333   1.000
    O476    O    0.29073   0.49903   0.71026   1.000
    O477    O    0.28463   0.31574   0.68603   1.000
    O478    O    0.63943   0.85939   0.68395   1.000
    O479    O    0.63348   0.79627   0.70134   1.000
    O480    O    0.89012   0.94043   0.69025   1.000
    O481    O    0.87739   0.00453   0.69793   1.000
    O482    O    0.31419   0.68313   0.71692   1.000
    O483    O    0.71446   0.31393   0.68383   1.000
    O484    O    0.36279   0.87567   0.69576   1.000
    O485    O    0.37615   0.94070   0.70556   1.000
    O486    O    0.66452   0.33759   0.72828   1.000
    O487    O    0.96831   0.28663   0.69047   1.000
    O488    O    0.03136   0.30952   0.71327   1.000
    O489    O    0.66241   0.91758   0.72932   1.000
    O490    O    0.91647   0.90010   0.73443   1.000
    O491    O    0.34316   0.83195   0.73940   1.000
    O492    O    0.59031   0.59613   0.75831   1.000
    O493    O    0.54736   0.36928   0.75696   1.000
    O494    O    0.10981   0.35869   0.73993   1.000
    O495    O    0.44686   0.55419   0.77682   1.000
    O496    O    0.16532   0.39495   0.80860   1.000
    O497    O    0.25271   0.54418   0.79837   1.000
    O498    O    0.66222   0.91705   0.80250   1.000
    O499    O    0.61027   0.35950   0.77632   1.000
    O500    O    0.67932   0.35062   0.80355   1.000
    O501    O    0.69994   0.63350   0.79720   1.000
    O502    O    0.06355   0.52944   0.79813   1.000
    O503    O    0.55770   0.38104   0.82174   1.000
    O504    O    0.54584   0.86878   0.81636   1.000
    O505    O    0.63606   0.61731   0.80454   1.000
    O506    O    0.56495   0.60049   0.81801   1.000
    O507    O    0.49144   0.58225   0.82996   1.000
    O508    O    0.42076   0.56853   0.83946   1.000
    O509    O    0.09577   0.59039   0.82049   1.000
    O510    O    0.02479   0.58011   0.82947   1.000
    O511    O    0.91799   0.50984   0.82927   1.000
    O512    O    0.68298   0.63953   0.86040   1.000
    O513    O    0.19238   0.60230   0.83491   1.000
    O514    O    0.73924   0.34419   0.83201   1.000
    O515    O    0.69628   0.36409   0.87620   1.000
    O516    O    0.60746   0.88488   0.84038   1.000
    O517    O    0.67521   0.90194   0.87189   1.000
    O518    O    0.95033   0.56787   0.84272   1.000
    O519    O    0.87862   0.55394   0.85589   1.000
    O520    O    0.55449   0.85489   0.88004   1.000
    O521    O    0.26088   0.63848   0.89094   1.000
    O522    O    0.98231   0.63493   0.85978   1.000
    O523    O    0.54109   0.60708   0.88668   1.000
    O524    O    0.51433   0.40015   0.86619   1.000
    O525    O    0.57455   0.39408   0.89378   1.000
    O526    O    0.81494   0.54578   0.86985   1.000
    O527    O    0.83935   0.60727   0.88555   1.000
    O528    O    0.17957   0.40662   0.90497   1.000
    O529    O    0.00666   0.69575   0.87656   1.000
    O530    O    0.94254   0.68862   0.88956   1.000
    O531    O    0.73372   0.91589   0.90294   1.000
    O532    O    0.87130   0.67488   0.90216   1.000
    O533    O    0.80190   0.66235   0.91744   1.000
    O534    O    0.72874   0.66272   0.91823   1.000
    O535    O    0.65928   0.64534   0.92997   1.000
    O536    O    0.90269   0.73325   0.91567   1.000
    O537    O    0.68946   0.88951   0.94310   1.000
    O538    O    0.64407   0.38600   0.92100   1.000
    O539    O    0.70714   0.37805   0.94102   1.000
    O540    O    0.51075   0.82798   0.91972   1.000
    O541    O    0.56895   0.84180   0.95169   1.000
    O542    O    0.58850   0.62971   0.94278   1.000
    O543    O    0.52439   0.61482   0.94965   1.000
    O544    O    0.20220   0.46765   0.93676   1.000
    O545    O    0.63616   0.85936   0.98323   1.000
    O546    O    0.67513   0.14572   0.42048   1.000
    O547    O    0.89008   0.23748   0.54922   1.000
    O548    O    0.66627   0.35196   0.43792   1.000
    O549    O    0.71993   0.20133   0.36502   1.000
    O550    O    0.41980   0.67475   0.14832   1.000
    O551    O    0.54730   0.88869   0.23878   1.000
    O552    O    0.43732   0.66601   0.35483   1.000
    O553    O    0.36414   0.71941   0.20380   1.000
    O554    O    0.14625   0.41798   0.67654   1.000
    O555    O    0.23845   0.54655   0.89062   1.000
    O556    O    0.35370   0.43633   0.66722   1.000
    O557    O    0.20251   0.36335   0.72074   1.000
    O558    O    0.85357   0.32298   0.58206   1.000
    O559    O    0.76150   0.10922   0.45345   1.000
    O560    O    0.64562   0.33278   0.56347   1.000
    O561    O    0.79686   0.27904   0.63640   1.000
    O562    O    0.32470   0.57945   0.85409   1.000
    O563    O    0.10967   0.45079   0.76232   1.000
    O564    O    0.33350   0.56200   0.64795   1.000
    O565    O    0.27998   0.63500   0.79858   1.000
    O566    O    0.58160   0.85195   0.32525   1.000
    O567    O    0.45252   0.76044   0.11139   1.000
    O568    O    0.56275   0.64539   0.33411   1.000
    O569    O    0.63579   0.79628   0.28016   1.000
    O570    O    0.79723   0.25139   0.54660   1.000
    O571    O    0.45421   0.74690   0.20398   1.000
    O572    O    0.20221   0.45362   0.74815   1.000
loop_
    _geom_bond_atom_site_label_1
    _geom_bond_atom_site_label_2
    _geom_bond_distance
    _geom_bond_site_symmetry_2
    _ccdc_geom_bond_type
    C208   O264      0.62736      .   S
    C225   O264      0.62736      .   S
    C208   O265      0.62753  1_554   S
    C249   O265      0.62753      .   S
    C261   O266      0.69101      .   S
    C99    O266      0.69101      .   S
    C261   O267      0.69112  1_554   S
    C162   O267      0.69112      .   S
    C131   O268      0.70157      .   S
    C132   O268      0.70157      .   S
    C131   O269      0.70191      .   S
    C136   O269      0.70191      .   S
    C131   O270      0.74382  1_554   S
    C130   O270      0.74382      .   S
    C132   O271      0.69507      .   S
    C133   O271      0.69507      .   S
    C132   O272      0.54425  1_554   S
    C37    O272      0.54425      .   S
    C58    O273      0.54432  1_554   S
    C168   O273      0.54432      .   S
    C21    O274      0.54430      .   S
    C104   O274      0.54430      .   S
    C18    O275      0.54460      .   S
    C98    O275      0.54460      .   S
    C73    O276      0.54423      .   S
    C195   O276      0.54423  1_556   S
    C105   O277      0.69498      .   S
    C104   O277      0.69498      .   S
    C105   O278      0.69885      .   S
    C106   O278      0.69885      .   S
    C105   O279      0.54428      .   S
    C22    O279      0.54428  1_556   S
    C225   O280      1.08963      .   S
    C1     O280      1.08963      .   S
    C253   O281      0.64040      .   S
    C193   O281      0.64040      .   S
    C193   O282      0.64048      .   S
    C254   O282      0.64048      .   S
    C193   O283      0.74451      .   S
    C194   O283      0.74451  1_556   S
    C220   O284      0.69107      .   S
    C106   O284      0.69107      .   S
    C220   O285      0.69255      .   S
    C113   O285      0.69255      .   S
    C26    O286      0.54480      .   S
    C112   O286      0.54480      .   S
    C104   O287      0.70186      .   S
    C103   O287      0.70186      .   S
    C99    O288      0.70060      .   S
    C98    O288      0.70060      .   S
    C99    O289      0.69949      .   S
    C100   O289      0.69949      .   S
    C40    O290      0.54425      .   S
    C136   O290      0.54425      .   S
    C136   O291      0.69381      .   S
    C135   O291      0.69381      .   S
    C98    O292      0.69576      .   S
    C97    O292      0.69576      .   S
    C133   O293      0.54459      .   S
    C38    O293      0.54459      .   S
    C133   O294      0.69913      .   S
    C134   O294      0.69913      .   S
    C112   O295      0.69907      .   S
    C113   O295      0.69907      .   S
    C112   O296      0.69519      .   S
    C111   O296      0.69519      .   S
    C106   O297      0.70081      .   S
    C107   O297      0.70081      .   S
    C113   O298      0.70040      .   S
    C114   O298      0.70040      .   S
    C25    O299      0.54445      .   S
    C111   O299      0.54445  1_545   S
    C111   O300      0.70166      .   S
    C110   O300      0.70166      .   S
    C254   O301      1.09956      .   S
    C5     O301      1.09956      .   S
    C114   O302      0.54439      .   S
    C27    O302      0.54439      .   S
    C114   O303      0.69455      .   S
    C115   O303      0.69455      .   S
    C19    O304      0.54438      .   S
    C100   O304      0.54438      .   S
    C219   O305      0.63770      .   S
    C102   O305      0.63770      .   S
    C100   O306      0.69492      .   S
    C101   O306      0.69492      .   S
    C110   O307      0.70201      .   S
    C115   O307      0.70201      .   S
    C110   O308      0.74467  1_545   S
    C109   O308      0.74467      .   S
    C103   O309      0.74183      .   S
    C102   O309      0.74183      .   S
    C103   O310      0.70258      .   S
    C108   O310      0.70258      .   S
    C1     O311      1.09972      .   S
    C222   O311      1.09972      .   S
    C135   O312      0.70036      .   S
    C134   O312      0.70036      .   S
    C135   O313      0.54481      .   S
    C39    O313      0.54481      .   S
    C115   O314      0.54405      .   S
    C28    O314      0.54405      .   S
    C97    O315      0.54462      .   S
    C17    O315      0.54462      .   S
    C97    O316      0.70292      .   S
    C96    O316      0.70292      .   S
    C134   O317      0.69218      .   S
    C228   O317      0.69218      .   S
    C222   O318      0.64103      .   S
    C109   O318      0.64103      .   S
    C107   O319      0.69385      .   S
    C108   O319      0.69385      .   S
    C107   O320      0.54440      .   S
    C23    O320      0.54440      .   S
    C109   O321      0.64018      .   S
    C221   O321      0.64018      .   S
    C102   O322      0.64596      .   S
    C218   O322      0.64596      .   S
    C108   O323      0.54432      .   S
    C24    O323      0.54432      .   S
    C101   O324      0.70249      .   S
    C96    O324      0.70249      .   S
    C101   O325      0.54400      .   S
    C20    O325      0.54400      .   S
    C29    O326      0.54463      .   S
    C118   O326      0.54463      .   S
    C96    O327      0.74515      .   S
    C95    O327      0.74515      .   S
    C228   O328      0.69075      .   S
    C127   O328      0.69075      .   S
    C14    O329      0.54468      .   S
    C91    O329      0.54468      .   S
    C224   O330      0.63306      .   S
    C116   O330      0.63306      .   S
    C259   O331      1.02449      .   S
    C5     O331      1.02449      .   S
    C259   O332      1.01098      .   S
    C7     O332      1.01098      .   S
    C5     O333      1.08830      .   S
    C257   O333      1.08830      .   S
    C218   O334      1.08586      .   S
    C7     O334      1.08586      .   S
    C257   O335      0.62756      .   S
    C207   O335      0.62756      .   S
    C30    O336      0.54457      .   S
    C119   O336      0.54457      .   S
    C35    O337      0.54443      .   S
    C128   O337      0.54443      .   S
    C13    O338      0.54450      .   S
    C90    O338      0.54450  1_455   S
    C118   O339      0.69565      .   S
    C119   O339      0.69565      .   S
    C118   O340      0.70303      .   S
    C117   O340      0.70303      .   S
    C91    O341      0.69498      .   S
    C90    O341      0.69498      .   S
    C91    O342      0.69895      .   S
    C92    O342      0.69895      .   S
    C256   O343      0.63599      .   S
    C200   O343      0.63599      .   S
    C127   O344      0.70073      .   S
    C128   O344      0.70073      .   S
    C127   O345      0.69847      .   S
    C126   O345      0.69847      .   S
    C207   O346      0.62756  1_565   S
    C217   O346      0.62756      .   S
    C217   O347      1.08808      .   S
    C0     O347      1.08808      .   S
    C95    O348      0.63630      .   S
    C216   O348      0.63630      .   S
    C95    O349      0.64699      .   S
    C215   O349      0.64699      .   S
    C119   O350      0.70061      .   S
    C120   O350      0.70061      .   S
    C116   O351      0.74645      .   S
    C117   O351      0.74645      .   S
    C116   O352      0.64973      .   S
    C223   O352      0.64973      .   S
    C212   O353      0.69084      .   S
    C85    O353      0.69084      .   S
    C212   O354      0.69226      .   S
    C92    O354      0.69226      .   S
    C90    O355      0.70163      .   S
    C89    O355      0.70163      .   S
    C128   O356      0.69328      .   S
    C129   O356      0.69328      .   S
    C200   O357      0.64784      .   S
    C255   O357      0.64784      .   S
    C200   O358      0.74518      .   S
    C201   O358      0.74518      .   S
    C7     O359      1.08600      .   S
    C250   O359      1.08600      .   S
    C77    O360      0.54460      .   S
    C202   O360      0.54460      .   S
    C10    O361      0.54457  1_565   S
    C84    O361      0.54457      .   S
    C201   O362      0.70299      .   S
    C202   O362      0.70299      .   S
    C201   O363      0.70238      .   S
    C206   O363      0.70238      .   S
    C117   O364      0.70233      .   S
    C122   O364      0.70233      .   S
    C85    O365      0.69876      .   S
    C84    O365      0.69876      .   S
    C85    O366      0.70067      .   S
    C86    O366      0.70067      .   S
    C92    O367      0.70038      .   S
    C93    O367      0.70038      .   S
    C202   O368      0.69565      .   S
    C203   O368      0.69565      .   S
    C84    O369      0.69497      .   S
    C83    O369      0.69497      .   S
    C34    O370      0.54461  1_655   S
    C126   O370      0.54461      .   S
    C11    O371      0.54440      .   S
    C86    O371      0.54440      .   S
    C80    O372      0.54399      .   S
    C206   O372      0.54399      .   S
    C86    O373      0.69358      .   S
    C87    O373      0.69358      .   S
    C206   O374      0.69511      .   S
    C205   O374      0.69511      .   S
    C126   O375      0.69511      .   S
    C125   O375      0.69511      .   S
    C203   O376      0.54458      .   S
    C78    O376      0.54458      .   S
    C203   O377      0.70058      .   S
    C204   O377      0.70058      .   S
    C83    O378      0.54428      .   S
    C9     O378      0.54428      .   S
    C83    O379      0.70170      .   S
    C82    O379      0.70170      .   S
    C214   O380      1.10051      .   S
    C0     O380      1.10051      .   S
    C214   O381      0.64032      .   S
    C88    O381      0.64032      .   S
    C251   O382      0.63810      .   S
    C186   O382      0.63810      .   S
    C205   O383      0.69933      .   S
    C204   O383      0.69933      .   S
    C205   O384      0.54434      .   S
    C79    O384      0.54434      .   S
    C87    O385      0.70258      .   S
    C82    O385      0.70258      .   S
    C87    O386      0.54424      .   S
    C12    O386      0.54424      .   S
    C204   O387      0.69134      .   S
    C262   O387      0.69134  1_455   S
    C120   O388      0.69125      .   S
    C262   O388      0.69125      .   S
    C120   O389      0.69927      .   S
    C121   O389      0.69927      .   S
    C82    O390      0.74181      .   S
    C81    O390      0.74181      .   S
    C129   O391      0.54426      .   S
    C36    O391      0.54426      .   S
    C129   O392      0.70306      .   S
    C124   O392      0.70306      .   S
    C89    O393      0.74406  1_455   S
    C88    O393      0.74406      .   S
    C89    O394      0.70187      .   S
    C94    O394      0.70187      .   S
    C0     O395      1.02481      .   S
    C258   O395      1.02481      .   S
    C211   O396      0.63826      .   S
    C81    O396      0.63826      .   S
    C122   O397      0.69512      .   S
    C121   O397      0.69512      .   S
    C122   O398      0.54400      .   S
    C32    O398      0.54400      .   S
    C81    O399      0.64522      .   S
    C210   O399      0.64522      .   S
    C93    O400      0.69446      .   S
    C94    O400      0.69446      .   S
    C93    O401      0.54431      .   S
    C15    O401      0.54431      .   S
    C88    O402      0.64104      .   S
    C213   O402      0.64104      .   S
    C250   O403      0.64536      .   S
    C186   O403      0.64536      .   S
    C186   O404      0.74218      .   S
    C187   O404      0.74218      .   S
    C125   O405      0.70177      .   S
    C124   O405      0.70177      .   S
    C125   O406      0.54429      .   S
    C33    O406      0.54429      .   S
    C121   O407      0.54435      .   S
    C31    O407      0.54435      .   S
    C210   O408      1.08665      .   S
    C6     O408      1.08665      .   S
    C94    O409      0.54428      .   S
    C16    O409      0.54428      .   S
    C124   O410      0.74212      .   S
    C123   O410      0.74212      .   S
    C52    O411      0.54442      .   S
    C157   O411      0.54442      .   S
    C67    O412      0.54438      .   S
    C184   O412      0.54438      .   S
    C237   O413      0.64033      .   S
    C151   O413      0.64033      .   S
    C69    O414      0.54426      .   S
    C188   O414      0.54426      .   S
    C6     O415      1.01053      .   S
    C258   O415      1.01053      .   S
    C6     O416      1.08639      .   S
    C234   O416      1.08639      .   S
    C51    O417      0.54474      .   S
    C156   O417      0.54474      .   S
    C68    O418      0.54395      .   S
    C185   O418      0.54395      .   S
    C187   O419      0.70185      .   S
    C188   O419      0.70185      .   S
    C187   O420      0.70257      .   S
    C192   O420      0.70257      .   S
    C234   O421      0.64484      .   S
    C144   O421      0.64484      .   S
    C157   O422      0.69440      .   S
    C156   O422      0.69440      .   S
    C157   O423      0.70188      .   S
    C152   O423      0.70188      .   S
    C184   O424      0.69492      .   S
    C185   O424      0.69492      .   S
    C184   O425      0.69945      .   S
    C183   O425      0.69945      .   S
    C188   O426      0.69492      .   S
    C189   O426      0.69492      .   S
    C123   O427      0.64505      .   S
    C226   O427      0.64505      .   S
    C123   O428      0.63839      .   S
    C227   O428      0.63839      .   S
    C226   O429      1.08646      .   S
    C8     O429      1.08646      .   S
    C156   O430      0.70031      .   S
    C155   O430      0.70031      .   S
    C151   O431      0.74411      .   S
    C152   O431      0.74411  1_565   S
    C151   O432      0.64073      .   S
    C238   O432      0.64073      .   S
    C144   O433      0.63845      .   S
    C235   O433      0.63845      .   S
    C144   O434      0.74200      .   S
    C145   O434      0.74200      .   S
    C185   O435      0.70257      .   S
    C180   O435      0.70257      .   S
    C263   O436      0.69111      .   S
    C183   O436      0.69111      .   S
    C263   O437      0.69124  1_565   S
    C141   O437      0.69124      .   S
    C72    O438      0.54430      .   S
    C192   O438      0.54430      .   S
    C48    O439      0.54427      .   S
    C150   O439      0.54427      .   S
    C3     O440      1.10076      .   S
    C238   O440      1.10076      .   S
    C3     O441      1.08974      .   S
    C241   O441      1.08974      .   S
    C43    O442      0.54436      .   S
    C142   O442      0.54436      .   S
    C152   O443      0.70160      .   S
    C153   O443      0.70160      .   S
    C145   O444      0.70259      .   S
    C150   O444      0.70259      .   S
    C145   O445      0.70172      .   S
    C146   O445      0.70172      .   S
    C192   O446      0.69385      .   S
    C191   O446      0.69385      .   S
    C183   O447      0.70060      .   S
    C182   O447      0.70060      .   S
    C150   O448      0.69382      .   S
    C149   O448      0.69382      .   S
    C141   O449      0.69929      .   S
    C142   O449      0.69929      .   S
    C141   O450      0.70053      .   S
    C140   O450      0.70053      .   S
    C142   O451      0.69515      .   S
    C143   O451      0.69515      .   S
    C45    O452      0.54422      .   S
    C146   O452      0.54422      .   S
    C146   O453      0.69480      .   S
    C147   O453      0.69480      .   S
    C42    O454      0.54462      .   S
    C140   O454      0.54462      .   S
    C140   O455      0.69568      .   S
    C139   O455      0.69568      .   S
    C239   O456      0.64826      .   S
    C158   O456      0.64826      .   S
    C189   O457      0.54460      .   S
    C70    O457      0.54460  1_545   S
    C189   O458      0.69879      .   S
    C190   O458      0.69879      .   S
    C247   O459      0.64754      .   S
    C179   O459      0.64754      .   S
    C143   O460      0.54403      .   S
    C44    O460      0.54403      .   S
    C143   O461      0.70237      .   S
    C138   O461      0.70237      .   S
    C149   O462      0.54442      .   S
    C47    O462      0.54442      .   S
    C149   O463      0.70073      .   S
    C148   O463      0.70073      .   S
    C147   O464      0.69873      .   S
    C148   O464      0.69873      .   S
    C147   O465      0.54465      .   S
    C46    O465      0.54465  1_455   S
    C139   O466      0.70304      .   S
    C138   O466      0.70304      .   S
    C139   O467      0.54463      .   S
    C41    O467      0.54463      .   S
    C148   O468      0.69075      .   S
    C236   O468      0.69075      .   S
    C155   O469      0.69219      .   S
    C236   O469      0.69219      .   S
    C155   O470      0.69916      .   S
    C154   O470      0.69916      .   S
    C138   O471      0.74526      .   S
    C137   O471      0.74526      .   S
    C180   O472      0.74512      .   S
    C179   O472      0.74512      .   S
    C180   O473      0.70293      .   S
    C181   O473      0.70293      .   S
    C231   O474      0.64803      .   S
    C137   O474      0.64803      .   S
    C8     O475      1.08690      .   S
    C242   O475      1.08690      .   S
    C8     O476      1.01068      .   S
    C260   O476      1.01068      .   S
    C137   O477      0.63581      .   S
    C232   O477      0.63581      .   S
    C191   O478      0.70074      .   S
    C190   O478      0.70074      .   S
    C191   O479      0.54439      .   S
    C71    O479      0.54439      .   S
    C153   O480      0.69508      .   S
    C154   O480      0.69508      .   S
    C153   O481      0.54447  1_565   S
    C49    O481      0.54447      .   S
    C179   O482      0.63635      .   S
    C248   O482      0.63635      .   S
    C240   O483      0.63562      .   S
    C158   O483      0.63562      .   S
    C182   O484      0.69573      .   S
    C181   O484      0.69573      .   S
    C182   O485      0.54458      .   S
    C66    O485      0.54458      .   S
    C158   O486      0.74526      .   S
    C159   O486      0.74526      .   S
    C209   O487      0.62764      .   S
    C241   O487      0.62764      .   S
    C209   O488      0.62751  1_655   S
    C233   O488      0.62751      .   S
    C190   O489      0.69106      .   S
    C252   O489      0.69106      .   S
    C154   O490      0.54467      .   S
    C50    O490      0.54467      .   S
    C181   O491      0.54464      .   S
    C65    O491      0.54464      .   S
    C60    O492      0.54424      .   S
    C171   O492      0.54424      .   S
    C56    O493      0.54405      .   S
    C164   O493      0.54405      .   S
    C233   O494      1.08963      .   S
    C2     O494      1.08963      .   S
    C242   O495      0.64529      .   S
    C165   O495      0.64529      .   S
    C2     O496      1.10100      .   S
    C230   O496      1.10100      .   S
    C260   O497      1.02483      .   S
    C4     O497      1.02483      .   S
    C252   O498      0.69258      .   S
    C197   O498      0.69258      .   S
    C159   O499      0.70233      .   S
    C164   O499      0.70233      .   S
    C159   O500      0.70309      .   S
    C160   O500      0.70309      .   S
    C59    O501      0.54444      .   S
    C170   O501      0.54444      .   S
    C245   O502      0.64071      .   S
    C172   O502      0.64071      .   S
    C164   O503      0.69520      .   S
    C163   O503      0.69520      .   S
    C75    O504      0.54464      .   S
    C198   O504      0.54464      .   S
    C171   O505      0.69365      .   S
    C170   O505      0.69365      .   S
    C171   O506      0.70262      .   S
    C166   O506      0.70262      .   S
    C165   O507      0.74182      .   S
    C166   O507      0.74182      .   S
    C165   O508      0.63827      .   S
    C243   O508      0.63827      .   S
    C172   O509      0.64048      .   S
    C246   O509      0.64048      .   S
    C172   O510      0.74422      .   S
    C173   O510      0.74422  1_655   S
    C64    O511      0.54428      .   S
    C178   O511      0.54428      .   S
    C170   O512      0.70072      .   S
    C169   O512      0.70072      .   S
    C246   O513      1.10082      .   S
    C4     O513      1.10082      .   S
    C53    O514      0.54462      .   S
    C160   O514      0.54462      .   S
    C160   O515      0.69573      .   S
    C161   O515      0.69573      .   S
    C197   O516      0.70043      .   S
    C198   O516      0.70043      .   S
    C197   O517      0.69902      .   S
    C196   O517      0.69902      .   S
    C178   O518      0.70186      .   S
    C173   O518      0.70186      .   S
    C178   O519      0.69429      .   S
    C177   O519      0.69429      .   S
    C198   O520      0.69463      .   S
    C199   O520      0.69463      .   S
    C4     O521      1.08808      .   S
    C249   O521      1.08808      .   S
    C173   O522      0.70155      .   S
    C174   O522      0.70155      .   S
    C166   O523      0.69469      .   S
    C167   O523      0.69469      .   S
    C163   O524      0.54434      .   S
    C55    O524      0.54434      .   S
    C163   O525      0.69925      .   S
    C162   O525      0.69925      .   S
    C63    O526      0.54434      .   S
    C177   O526      0.54434      .   S
    C177   O527      0.70049      .   S
    C176   O527      0.70049      .   S
    C230   O528      0.64063      .   S
    C130   O528      0.64063      .   S
    C174   O529      0.54448  1_655   S
    C61    O529      0.54448      .   S
    C174   O530      0.69504      .   S
    C175   O530      0.69504      .   S
    C74    O531      0.54468      .   S
    C196   O531      0.54468      .   S
    C176   O532      0.69900      .   S
    C175   O532      0.69900      .   S
    C176   O533      0.69231      .   S
    C244   O533      0.69231      .   S
    C169   O534      0.69093      .   S
    C244   O534      0.69093      .   S
    C169   O535      0.69870      .   S
    C168   O535      0.69870      .   S
    C175   O536      0.54467      .   S
    C62    O536      0.54467      .   S
    C196   O537      0.69500      .   S
    C195   O537      0.69500      .   S
    C161   O538      0.70052      .   S
    C162   O538      0.70052      .   S
    C161   O539      0.54463      .   S
    C54    O539      0.54463      .   S
    C199   O540      0.54429      .   S
    C76    O540      0.54429      .   S
    C199   O541      0.70170      .   S
    C194   O541      0.70170      .   S
    C167   O542      0.69707      .   S
    C168   O542      0.69707      .   S
    C167   O543      0.54922      .   S
    C57    O543      0.54922      .   S
    C130   O544      0.64042      .   S
    C229   O544      0.64042      .   S
    C195   O545      0.70164      .   S
    C194   O545      0.70164      .   S
    C211   O546      1.11966      .   S
    C0     O546      1.11966      .   S
    C213   O547      1.10349      .   S
    C3     O547      1.10349      .   S
    C215   O548      1.08999      .   S
    C6     O548      1.08999      .   S
    C216   O549      1.13112      .   S
    C0     O549      1.13112      .   S
    C219   O550      1.11857      .   S
    C1     O550      1.11857      .   S
    C221   O551      1.10599      .   S
    C5     O551      1.10599      .   S
    C223   O552      1.08942      .   S
    C7     O552      1.08942      .   S
    C224   O553      1.13154      .   S
    C1     O553      1.13154      .   S
    C227   O554      1.11676      .   S
    C2     O554      1.11676      .   S
    C229   O555      1.10381      .   S
    C4     O555      1.10381      .   S
    C231   O556      1.08897      .   S
    C8     O556      1.08897      .   S
    C232   O557      1.13262      .   S
    C2     O557      1.13262      .   S
    C235   O558      1.11542      .   S
    C3     O558      1.11542      .   S
    C237   O559      1.10391      .   S
    C0     O559      1.10391      .   S
    C239   O560      1.08859      .   S
    C6     O560      1.08859      .   S
    C240   O561      1.13439      .   S
    C3     O561      1.13439      .   S
    C243   O562      1.11981      .   S
    C4     O562      1.11981      .   S
    C245   O563      1.10315      .   S
    C2     O563      1.10315      .   S
    C247   O564      1.08923      .   S
    C8     O564      1.08923      .   S
    C248   O565      1.13102      .   S
    C4     O565      1.13102      .   S
    C251   O566      1.11745      .   S
    C5     O566      1.11745      .   S
    C253   O567      1.10501      .   S
    C1     O567      1.10501      .   S
    C255   O568      1.08889      .   S
    C7     O568      1.08889      .   S
    C256   O569      1.13235      .   S
    C5     O569      1.13235      .   S
    C258   O570      1.02594      .   S
    C3     O570      1.02594      .   S
    C259   O571      1.02554      .   S
    C1     O571      1.02554      .   S
    C260   O572      1.02595      .   S
    C2     O572      1.02595      .   S
