# CIF file generated by openbabel 2.4.90, see http://openbabel.sf.net
data_I
_chemical_name_common ''
_cell_length_a 17.267
_cell_length_b 17.302
_cell_length_c 17.294
_cell_angle_alpha 97.826
_cell_angle_beta 115.501
_cell_angle_gamma 115.506
_space_group_name_H-M_alt 'P 1'
_space_group_name_Hall 'P 1'
loop_
    _symmetry_equiv_pos_as_xyz
    x,y,z
loop_
    _atom_site_label
    _atom_site_type_symbol
    _atom_site_fract_x
    _atom_site_fract_y
    _atom_site_fract_z
    _atom_site_occupancy
    Lv0     Lv   0.41131   0.07409   0.22753   1.000
    Lv1     Lv   0.58866   0.92592   0.77240   1.000
    Lv2     Lv   0.29738   0.09634   0.69099   1.000
    Lv3     Lv   0.20240   0.89354   0.79900   1.000
    Lv4     Lv   0.70260   0.90363   0.30889   1.000
    Lv5     Lv   0.09458   0.20075   0.90332   1.000
    Lv6     Lv   0.79759   0.10646   0.20096   1.000
    Lv7     Lv   0.08774   0.31649   0.66126   1.000
    Lv8     Lv   0.65447   0.33800   0.92624   1.000
    Lv9     Lv   0.59446   0.69101   0.89355   1.000
    Lv10    Lv   0.91219   0.68345   0.33863   1.000
    Lv11    Lv   0.90537   0.79926   0.09658   1.000
    Lv12    Lv   0.15432   0.22805   0.31645   1.000
    Lv13    Lv   0.84566   0.77195   0.68348   1.000
    Lv14    Lv   0.34546   0.66200   0.07374   1.000
    Lv15    Lv   0.40556   0.30901   0.10634   1.000
