# CIF file generated by openbabel 2.4.90, see http://openbabel.sf.net
data_I
_chemical_name_common ''
_cell_length_a 17.267
_cell_length_b 17.302
_cell_length_c 17.294
_cell_angle_alpha 97.826
_cell_angle_beta 115.501
_cell_angle_gamma 115.506
_space_group_name_H-M_alt 'P 1'
_space_group_name_Hall 'P 1'
loop_
    _symmetry_equiv_pos_as_xyz
    x,y,z
loop_
    _atom_site_label
    _atom_site_type_symbol
    _atom_site_fract_x
    _atom_site_fract_y
    _atom_site_fract_z
    _atom_site_occupancy
    Zn0     Zn   0.88312   0.03722   0.59831   1.000
    Zn1     Zn   0.11679   0.96271   0.40159   1.000
    Zn2     Zn   0.61696   0.21620   0.15313   1.000
    Zn3     Zn   0.06219   0.84719   0.96304   1.000
    Zn4     Zn   0.56177   0.59840   0.21590   1.000
    Zn5     Zn   0.43819   0.40162   0.78395   1.000
    Zn6     Zn   0.93779   0.15282   0.03690   1.000
    Zn7     Zn   0.38294   0.78372   0.84670   1.000
    C8      C    0.01662   0.97353   0.66539   1.000
    C9      C    0.75714   0.97606   0.66231   1.000
    C10     C    0.51693   0.85116   0.04345   1.000
    C11     C    0.25663   0.59405   0.78113   1.000
    C12     C    0.48302   0.14882   0.95647   1.000
    C13     C    0.74332   0.40591   0.21874   1.000
    C14     C    0.98333   0.02644   0.33457   1.000
    C15     C    0.24285   0.02398   0.33765   1.000
    C16     C    0.69188   0.66570   0.14898   1.000
    C17     C    0.68642   0.66178   0.40574   1.000
    C18     C    0.19245   0.04380   0.02666   1.000
    C19     C    0.18687   0.78184   0.02383   1.000
    C20     C    0.80754   0.95620   0.97325   1.000
    C21     C    0.81308   0.21816   0.97609   1.000
    C22     C    0.30807   0.33432   0.85094   1.000
    C23     C    0.31358   0.33823   0.59420   1.000
    O24     O    0.98857   0.02357   0.69670   1.000
    O25     O    0.98413   0.94051   0.58120   1.000
    O26     O    0.81195   0.05319   0.65794   1.000
    O27     O    0.74568   0.90015   0.62573   1.000
    O28     O    0.48672   0.78960   0.96588   1.000
    O29     O    0.48710   0.90522   0.04354   1.000
    O30     O    0.31206   0.65364   0.75944   1.000
    O31     O    0.24439   0.61830   0.84535   1.000
    O32     O    0.51336   0.21050   0.03402   1.000
    O33     O    0.51276   0.09468   0.95640   1.000
    O34     O    0.68787   0.34630   0.24039   1.000
    O35     O    0.75553   0.38170   0.15448   1.000
    O36     O    0.01147   0.97650   0.30326   1.000
    O37     O    0.01572   0.05933   0.41875   1.000
    O38     O    0.18804   0.94686   0.34202   1.000
    O39     O    0.25435   0.09990   0.37420   1.000
    O40     O    0.67478   0.69667   0.20994   1.000
    O41     O    0.63871   0.58204   0.09529   1.000
    O42     O    0.60483   0.65730   0.34635   1.000
    O43     O    0.72643   0.62543   0.38124   1.000
    O44     O    0.17425   0.96612   0.97682   1.000
    O45     O    0.14093   0.04410   0.05960   1.000
    O46     O    0.10555   0.75996   0.94681   1.000
    O47     O    0.22649   0.84629   0.09977   1.000
    O48     O    0.82571   0.03388   0.02307   1.000
    O49     O    0.85906   0.95591   0.94032   1.000
    O50     O    0.89445   0.24007   0.05309   1.000
    O51     O    0.77344   0.15372   0.90015   1.000
    O52     O    0.32513   0.30337   0.78994   1.000
    O53     O    0.36124   0.41798   0.90465   1.000
    O54     O    0.39516   0.34268   0.65358   1.000
    O55     O    0.27359   0.37458   0.61873   1.000
loop_
    _geom_bond_atom_site_label_1
    _geom_bond_atom_site_label_2
    _geom_bond_distance
    _geom_bond_site_symmetry_2
    _ccdc_geom_bond_type
    O48    Zn6       2.01866      .   S
    O48    C20       1.31748  1_544   S
    C19    O47       1.26755      .   S
    C19    O46       1.29752  1_554   S
    C18    O45       1.24712      .   S
    C18    O44       1.31752  1_544   S
    O32    Zn2       2.01817      .   S
    O32    C12       1.31755  1_554   S
    Zn6    O50       1.98891      .   S
    C10    O29       1.24722      .   S
    C10    O28       1.31762  1_554   S
    O50    C21       1.29760  1_554   S
    O41    C16       1.24731      .   S
    C16    O40       1.31768      .   S
    Zn2    O34       1.98848      .   S
    O35    C13       1.26725      .   S
    O40    Zn4       2.01815      .   S
    Zn4    O42       1.98945      .   S
    C13    O34       1.29763      .   S
    O36    C14       1.31774  1_465   S
    O36    Zn1       2.01917      .   S
    C14    O37       1.24712  1_655   S
    C15    O38       1.29750  1_545   S
    C15    O39       1.26718      .   S
    O38    Zn1       1.98864      .   S
    O42    C17       1.29777      .   S
    O43    C17       1.26719      .   S
    O25    C8        1.24706  1_655   S
    C23    O55       1.26717      .   S
    C23    O54       1.29781      .   S
    Zn0    O26       1.98887      .   S
    Zn0    O24       2.01952      .   S
    O27    C9        1.26748      .   S
    O54    Zn5       1.98853      .   S
    O26    C9        1.29751  1_545   S
    C8     O24       1.31772  1_465   S
    O30    C11       1.29777      .   S
    O30    Zn7       1.98828      .   S
    C11    O31       1.26714      .   S
    Zn5    O52       2.01879      .   S
    O52    C22       1.31759      .   S
    Zn7    O28       2.01877      .   S
    C22    O53       1.24735      .   S
    O51    C21       1.26747      .   S
    O49    C20       1.24700      .   S
    O46    Zn3       1.98903      .   S
    O33    C12       1.24725      .   S
    Zn3    O44       2.01876      .   S
