# CIF file generated by openbabel 2.4.90, see http://openbabel.sf.net
data_I
_chemical_name_common ''
_cell_length_a 17.267
_cell_length_b 17.302
_cell_length_c 17.294
_cell_angle_alpha 97.826
_cell_angle_beta 115.501
_cell_angle_gamma 115.506
_space_group_name_H-M_alt 'P 1'
_space_group_name_Hall 'P 1'
loop_
    _symmetry_equiv_pos_as_xyz
    x,y,z
loop_
    _atom_site_label
    _atom_site_type_symbol
    _atom_site_fract_x
    _atom_site_fract_y
    _atom_site_fract_z
    _atom_site_occupancy
    C0      C    0.01662   0.97353   0.66539   1.000
    C1      C    0.75714   0.97606   0.66231   1.000
    C2      C    0.51693   0.85116   0.04345   1.000
    C3      C    0.25663   0.59405   0.78113   1.000
    C4      C    0.48302   0.14882   0.95647   1.000
    C5      C    0.74332   0.40591   0.21874   1.000
    C6      C    0.98333   0.02644   0.33457   1.000
    C7      C    0.24285   0.02398   0.33765   1.000
    C8      C    0.69188   0.66570   0.14898   1.000
    C9      C    0.68642   0.66178   0.40574   1.000
    C10     C    0.19245   0.04380   0.02666   1.000
    C11     C    0.18687   0.78184   0.02383   1.000
    C12     C    0.80754   0.95620   0.97325   1.000
    C13     C    0.81308   0.21816   0.97609   1.000
    C14     C    0.30807   0.33432   0.85094   1.000
    C15     C    0.31358   0.33823   0.59420   1.000
