# CIF file generated by openbabel 2.4.90, see http://openbabel.sf.net
data_I
_chemical_name_common ''
_cell_length_a 17.267
_cell_length_b 17.302
_cell_length_c 17.294
_cell_angle_alpha 97.826
_cell_angle_beta 115.501
_cell_angle_gamma 115.506
_space_group_name_H-M_alt 'P 1'
_space_group_name_Hall 'P 1'
loop_
    _symmetry_equiv_pos_as_xyz
    x,y,z
loop_
    _atom_site_label
    _atom_site_type_symbol
    _atom_site_fract_x
    _atom_site_fract_y
    _atom_site_fract_z
    _atom_site_occupancy
    C0      C    0.38294   0.78372   0.84670   1.000
    C1      C    0.88312   0.03722   0.59831   1.000
    C2      C    0.11679   0.96271   0.40159   1.000
    C3      C    0.61696   0.21620   0.15313   1.000
    C4      C    0.06219   0.84719   0.96304   1.000
    C5      C    0.56177   0.59840   0.21590   1.000
    C6      C    0.43819   0.40162   0.78395   1.000
    C7      C    0.93779   0.15282   0.03690   1.000
    C8      C    0.33495   0.88669   0.97183   1.000
    C9      C    0.21996   0.80932   0.68552   1.000
    C10     C    0.09614   0.88155   0.63927   1.000
    C11     C    0.11149   0.98796   0.80872   1.000
    C12     C    0.53092   0.99908   0.88710   1.000
    C13     C    0.46842   0.75439   0.71502   1.000
    C14     C    0.61753   0.83809   0.67243   1.000
    C15     C    0.73242   0.05278   0.75105   1.000
    C16     C    0.21301   0.94082   0.90818   1.000
    C17     C    0.66394   0.05146   0.84282   1.000
    C18     C    0.83186   0.86089   0.44855   1.000
    C19     C    0.72370   0.03769   0.40970   1.000
    C20     C    0.60071   0.96060   0.21444   1.000
    C21     C    0.60798   0.79967   0.12410   1.000
    C22     C    0.03038   0.14501   0.52977   1.000
    C23     C    0.96714   0.25321   0.71269   1.000
    C24     C    0.11597   0.44436   0.77816   1.000
    C25     C    0.23251   0.48162   0.67926   1.000
    C26     C    0.71171   0.80371   0.27296   1.000
    C27     C    0.16315   0.32179   0.61060   1.000
    C28     C    0.16807   0.13905   0.55136   1.000
    C29     C    0.27623   0.96224   0.59010   1.000
    C30     C    0.39945   0.03951   0.78548   1.000
    C31     C    0.39197   0.20028   0.87571   1.000
    C32     C    0.96954   0.85496   0.47009   1.000
    C33     C    0.03290   0.74667   0.28732   1.000
    C34     C    0.88381   0.55560   0.22162   1.000
    C35     C    0.76747   0.51832   0.32069   1.000
    C36     C    0.28825   0.19624   0.72693   1.000
    C37     C    0.83677   0.67819   0.38923   1.000
    C38     C    0.66505   0.11328   0.02812   1.000
    C39     C    0.78003   0.19073   0.31443   1.000
    C40     C    0.90393   0.11855   0.36074   1.000
    C41     C    0.88841   0.01197   0.19125   1.000
    C42     C    0.46903   0.00094   0.11273   1.000
    C43     C    0.53160   0.24563   0.28490   1.000
    C44     C    0.38243   0.16191   0.32750   1.000
    C45     C    0.26753   0.94723   0.24890   1.000
    C46     C    0.78698   0.05916   0.09180   1.000
    C47     C    0.33604   0.94857   0.15710   1.000
    C48     C    0.08749   0.97110   0.13923   1.000
    C49     C    0.87318   0.68704   0.96265   1.000
    C50     C    0.75439   0.64066   0.03983   1.000
    C51     C    0.82369   0.80804   0.20036   1.000
    C52     C    0.88660   0.88710   0.85504   1.000
    C53     C    0.96014   0.71445   0.74690   1.000
    C54     C    0.83422   0.67185   0.55546   1.000
    C55     C    0.69742   0.75040   0.51837   1.000
    C56     C    0.96860   0.90765   0.19642   1.000
    C57     C    0.79024   0.84249   0.67807   1.000
    C58     C    0.58520   0.44854   0.11307   1.000
    C59     C    0.37543   0.40991   0.19048   1.000
    C60     C    0.25791   0.21466   0.11875   1.000
    C61     C    0.32123   0.12425   0.01181   1.000
    C62     C    0.38572   0.52990   0.00054   1.000
    C63     C    0.46011   0.71376   0.24535   1.000
    C64     C    0.33436   0.77948   0.16162   1.000
    C65     C    0.19800   0.67981   0.94691   1.000
    C66     C    0.46829   0.27306   0.05924   1.000
    C67     C    0.28965   0.61105   0.94806   1.000
    C68     C    0.41485   0.55151   0.88693   1.000
    C69     C    0.62450   0.59007   0.80930   1.000
    C70     C    0.74213   0.78534   0.88122   1.000
    C71     C    0.67874   0.87575   0.98807   1.000
    C72     C    0.61431   0.47019   0.99940   1.000
    C73     C    0.53969   0.28611   0.75460   1.000
    C74     C    0.66556   0.22053   0.83835   1.000
    C75     C    0.80197   0.32016   0.05307   1.000
    C76     C    0.53181   0.72700   0.94077   1.000
    C77     C    0.71033   0.38899   0.05195   1.000
    C78     C    0.91244   0.02894   0.86072   1.000
    C79     C    0.12689   0.31297   0.03733   1.000
    C80     C    0.24546   0.35936   0.95990   1.000
    C81     C    0.17624   0.19197   0.79952   1.000
    C82     C    0.11335   0.11288   0.14490   1.000
    C83     C    0.03984   0.28555   0.25303   1.000
    C84     C    0.16574   0.32815   0.44447   1.000
    C85     C    0.30257   0.24962   0.48154   1.000
    C86     C    0.03133   0.09235   0.80350   1.000
    C87     C    0.20975   0.15752   0.32188   1.000
    C88     C    0.29245   0.87838   0.90036   1.000
    C89     C    0.23201   0.83936   0.75200   1.000
    C90     C    0.19062   0.88603   0.77272   1.000
    C91     C    0.12277   0.90841   0.71270   1.000
    C92     C    0.08886   0.95867   0.73697   1.000
    C93     C    0.01662   0.97353   0.66539   1.000
    C94     C    0.53615   0.95295   0.84302   1.000
    C95     C    0.50526   0.82818   0.75270   1.000
    C96     C    0.58459   0.90400   0.75750   1.000
    C97     C    0.63827   0.90610   0.71260   1.000
    C98     C    0.70881   0.98270   0.71354   1.000
    C99     C    0.75714   0.97606   0.66231   1.000
    C100    C    0.79097   0.89113   0.41420   1.000
    C101    C    0.73407   0.98178   0.39216   1.000
    C102    C    0.69170   0.91883   0.30452   1.000
    C103    C    0.62458   0.91148   0.21440   1.000
    C104    C    0.58823   0.85118   0.13056   1.000
    C105    C    0.51693   0.85116   0.04345   1.000
    C106    C    0.03522   0.19398   0.58115   1.000
    C107    C    0.00406   0.25268   0.67550   1.000
    C108    C    0.08344   0.32711   0.67902   1.000
    C109    C    0.13716   0.42531   0.73099   1.000
    C110    C    0.20831   0.49500   0.72552   1.000
    C111    C    0.25663   0.59405   0.78113   1.000
    C112    C    0.20897   0.10880   0.58570   1.000
    C113    C    0.26588   0.01817   0.60774   1.000
    C114    C    0.30830   0.08115   0.69538   1.000
    C115    C    0.37549   0.08855   0.78550   1.000
    C116    C    0.41175   0.14879   0.86934   1.000
    C117    C    0.48302   0.14882   0.95647   1.000
    C118    C    0.96473   0.80598   0.41874   1.000
    C119    C    0.99593   0.74725   0.32445   1.000
    C120    C    0.91651   0.67284   0.32091   1.000
    C121    C    0.86272   0.57464   0.26888   1.000
    C122    C    0.79159   0.50494   0.27435   1.000
    C123    C    0.74332   0.40591   0.21874   1.000
    C124    C    0.70753   0.12159   0.09959   1.000
    C125    C    0.76798   0.16068   0.24780   1.000
    C126    C    0.80938   0.11400   0.22727   1.000
    C127    C    0.87725   0.09164   0.28727   1.000
    C128    C    0.91105   0.04127   0.26301   1.000
    C129    C    0.98333   0.02644   0.33457   1.000
    C130    C    0.46381   0.04706   0.15692   1.000
    C131    C    0.49473   0.17184   0.24726   1.000
    C132    C    0.41541   0.09603   0.24242   1.000
    C133    C    0.36171   0.09392   0.28735   1.000
    C134    C    0.29116   0.01731   0.28640   1.000
    C135    C    0.24285   0.02398   0.33765   1.000
    C136    C    0.02309   0.90011   0.10902   1.000
    C137    C    0.91107   0.75301   0.01849   1.000
    C138    C    0.88591   0.77321   0.08139   1.000
    C139    C    0.80311   0.71340   0.08880   1.000
    C140    C    0.77902   0.73703   0.14899   1.000
    C141    C    0.69188   0.66570   0.14898   1.000
    C142    C    0.88882   0.84275   0.80605   1.000
    C143    C    0.92380   0.75220   0.74740   1.000
    C144    C    0.85279   0.75700   0.67285   1.000
    C145    C    0.80606   0.71202   0.57450   1.000
    C146    C    0.73039   0.71296   0.50488   1.000
    C147    C    0.68642   0.66178   0.40574   1.000
    C148    C    0.52198   0.41421   0.12145   1.000
    C149    C    0.41231   0.39228   0.16000   1.000
    C150    C    0.38680   0.30464   0.11395   1.000
    C151    C    0.30460   0.21460   0.09170   1.000
    C152    C    0.27872   0.13076   0.04132   1.000
    C153    C    0.19245   0.04380   0.02666   1.000
    C154    C    0.38807   0.58157   0.04669   1.000
    C155    C    0.42359   0.67642   0.17153   1.000
    C156    C    0.35263   0.67990   0.09565   1.000
    C157    C    0.30623   0.73204   0.09359   1.000
    C158    C    0.23085   0.72636   0.01703   1.000
    C159    C    0.18687   0.78184   0.02383   1.000
    C160    C    0.47806   0.58583   0.87853   1.000
    C161    C    0.58766   0.60772   0.83942   1.000
    C162    C    0.61323   0.69537   0.88601   1.000
    C163    C    0.69545   0.78541   0.90827   1.000
    C164    C    0.72126   0.86925   0.95857   1.000
    C165    C    0.80754   0.95620   0.97325   1.000
    C166    C    0.61191   0.41848   0.95330   1.000
    C167    C    0.57628   0.32352   0.82847   1.000
    C168    C    0.64728   0.32008   0.90436   1.000
    C169    C    0.69370   0.26796   0.90639   1.000
    C170    C    0.76909   0.27363   0.98293   1.000
    C171    C    0.81308   0.21816   0.97609   1.000
    C172    C    0.97687   0.09991   0.89090   1.000
    C173    C    0.08895   0.24701   0.98147   1.000
    C174    C    0.11404   0.22679   0.91852   1.000
    C175    C    0.19679   0.28660   0.91103   1.000
    C176    C    0.22089   0.26298   0.85087   1.000
    C177    C    0.30807   0.33432   0.85094   1.000
    C178    C    0.11114   0.15723   0.19389   1.000
    C179    C    0.07619   0.24780   0.25255   1.000
    C180    C    0.14719   0.24301   0.32710   1.000
    C181    C    0.19393   0.28800   0.42538   1.000
    C182    C    0.26960   0.28706   0.49506   1.000
    C183    C    0.31358   0.33823   0.59420   1.000
    C184    C    0.29540   0.83544   0.83199   1.000
    C185    C    0.23112   0.90990   0.86771   1.000
    C186    C    0.47574   0.85935   0.80570   1.000
    C187    C    0.60193   0.98203   0.81526   1.000
    C188    C    0.79581   0.96406   0.45958   1.000
    C189    C    0.72993   0.86252   0.32153   1.000
    C190    C    0.97465   0.17064   0.61449   1.000
    C191    C    0.10092   0.28722   0.61800   1.000
    C192    C    0.20410   0.03587   0.54032   1.000
    C193    C    0.27005   0.13744   0.67837   1.000
    C194    C    0.02535   0.82931   0.38540   1.000
    C195    C    0.89901   0.71274   0.38189   1.000
    C196    C    0.70457   0.16454   0.16794   1.000
    C197    C    0.76888   0.09009   0.13227   1.000
    C198    C    0.52424   0.14066   0.19424   1.000
    C199    C    0.39804   0.01799   0.18469   1.000
    C200    C    0.99609   0.83244   0.03617   1.000
    C201    C    0.95879   0.86747   0.13760   1.000
    C202    C    0.94528   0.80536   0.82948   1.000
    C203    C    0.83213   0.81485   0.71272   1.000
    C204    C    0.49605   0.45964   0.16430   1.000
    C205    C    0.45820   0.32159   0.09007   1.000
    C206    C    0.44474   0.61513   0.14036   1.000
    C207    C    0.33161   0.61859   0.01758   1.000
    C208    C    0.50392   0.54038   0.83562   1.000
    C209    C    0.54188   0.67845   0.90994   1.000
    C210    C    0.55517   0.38485   0.85963   1.000
    C211    C    0.66836   0.38145   0.98242   1.000
    C212    C    0.00392   0.16759   0.96381   1.000
    C213    C    0.04114   0.13253   0.86232   1.000
    C214    C    0.05467   0.19462   0.17046   1.000
    C215    C    0.16785   0.18515   0.28720   1.000
    C216    C    0.98857   0.02357   0.69670   1.000
    C217    C    0.98413   0.94051   0.58120   1.000
    C218    C    0.81195   0.05319   0.65794   1.000
    C219    C    0.74568   0.90015   0.62573   1.000
    C220    C    0.48672   0.78960   0.96588   1.000
    C221    C    0.48710   0.90522   0.04354   1.000
    C222    C    0.31206   0.65364   0.75944   1.000
    C223    C    0.24439   0.61830   0.84535   1.000
    C224    C    0.51336   0.21050   0.03402   1.000
    C225    C    0.51276   0.09468   0.95640   1.000
    C226    C    0.68787   0.34630   0.24039   1.000
    C227    C    0.75553   0.38170   0.15448   1.000
    C228    C    0.01147   0.97650   0.30326   1.000
    C229    C    0.01572   0.05933   0.41875   1.000
    C230    C    0.18804   0.94686   0.34202   1.000
    C231    C    0.25435   0.09990   0.37420   1.000
    C232    C    0.67478   0.69667   0.20994   1.000
    C233    C    0.63871   0.58204   0.09529   1.000
    C234    C    0.60483   0.65730   0.34635   1.000
    C235    C    0.72643   0.62543   0.38124   1.000
    C236    C    0.17425   0.96612   0.97682   1.000
    C237    C    0.14093   0.04410   0.05960   1.000
    C238    C    0.10555   0.75996   0.94681   1.000
    C239    C    0.22649   0.84629   0.09977   1.000
    C240    C    0.82571   0.03388   0.02307   1.000
    C241    C    0.85906   0.95591   0.94032   1.000
    C242    C    0.89445   0.24007   0.05309   1.000
    C243    C    0.77344   0.15372   0.90015   1.000
    C244    C    0.32513   0.30337   0.78994   1.000
    C245    C    0.36124   0.41798   0.90465   1.000
    C246    C    0.39516   0.34268   0.65358   1.000
    C247    C    0.27359   0.37458   0.61873   1.000
    O248    O    0.38690   0.55574   0.02362   1.000
    O249    O    0.29998   0.12750   0.02657   1.000
    O250    O    0.20886   0.75410   0.02043   1.000
    O251    O    0.26854   0.72920   0.05531   1.000
    O252    O    0.21442   0.70309   0.98197   1.000
    O253    O    0.35984   0.60008   0.03213   1.000
    O254    O    0.34212   0.64925   0.05661   1.000
    O255    O    0.31063   0.61482   0.98282   1.000
    O256    O    0.95358   0.79272   0.02733   1.000
    O257    O    0.89849   0.76311   0.04994   1.000
    O258    O    0.89212   0.72002   0.99057   1.000
    O259    O    0.88175   0.09335   0.02999   1.000
    O260    O    0.81663   0.99504   0.99816   1.000
    O261    O    0.20668   0.81407   0.06180   1.000
    O262    O    0.14621   0.77090   0.98532   1.000
    O263    O    0.23558   0.08728   0.03399   1.000
    O264    O    0.16669   0.04395   0.04313   1.000
    O265    O    0.18335   0.00496   0.00174   1.000
    O266    O    0.68629   0.11743   0.06385   1.000
    O267    O    0.56516   0.21335   0.09358   1.000
    O268    O    0.49819   0.17966   0.99525   1.000
    O269    O    0.00959   0.86627   0.07260   1.000
    O270    O    0.02914   0.83981   0.99960   1.000
    O271    O    0.91612   0.19645   0.04499   1.000
    O272    O    0.99623   0.17372   0.10368   1.000
    O273    O    0.97086   0.16021   0.00035   1.000
    O274    O    0.10792   0.27999   0.00940   1.000
    O275    O    0.77875   0.67703   0.06432   1.000
    O276    O    0.29166   0.17268   0.06651   1.000
    O277    O    0.50201   0.87819   0.04349   1.000
    O278    O    0.55258   0.85117   0.08700   1.000
    O279    O    0.50182   0.82038   0.00466   1.000
    O280    O    0.41641   0.59835   0.09352   1.000
    O281    O    0.68935   0.38522   0.01719   1.000
    O282    O    0.78553   0.29689   0.01800   1.000
    O283    O    0.85376   0.22912   0.01459   1.000
    O284    O    0.46324   0.29732   0.07465   1.000
    O285    O    0.84451   0.74331   0.08510   1.000
    O286    O    0.92235   0.82034   0.10949   1.000
    O287    O    0.79106   0.72522   0.11890   1.000
    O288    O    0.42250   0.31312   0.10201   1.000
    O289    O    0.49009   0.36790   0.10576   1.000
    O290    O    0.34570   0.25962   0.10282   1.000
    O291    O    0.28125   0.21463   0.10522   1.000
    O292    O    0.77793   0.07463   0.11203   1.000
    O293    O    0.32943   0.70597   0.09462   1.000
    O294    O    0.32029   0.75576   0.12761   1.000
    O295    O    0.66529   0.62387   0.12214   1.000
    O296    O    0.38811   0.67816   0.13359   1.000
    O297    O    0.73821   0.10584   0.11593   1.000
    O298    O    0.70605   0.14307   0.13376   1.000
    O299    O    0.99094   0.88379   0.12331   1.000
    O300    O    0.05529   0.93560   0.12412   1.000
    O301    O    0.46642   0.02400   0.13483   1.000
    O302    O    0.55359   0.43137   0.11726   1.000
    O303    O    0.39956   0.34846   0.13697   1.000
    O304    O    0.50901   0.43692   0.14288   1.000
    O305    O    0.59810   0.82543   0.12733   1.000
    O306    O    0.60640   0.88133   0.17248   1.000
    O307    O    0.78913   0.10204   0.17977   1.000
    O308    O    0.96370   0.88756   0.16701   1.000
    O309    O    0.43417   0.64578   0.15595   1.000
    O310    O    0.50326   0.60676   0.17813   1.000
    O311    O    0.11225   0.13506   0.16940   1.000
    O312    O    0.73545   0.70137   0.14899   1.000
    O313    O    0.68333   0.68118   0.17946   1.000
    O314    O    0.80135   0.77254   0.17468   1.000
    O315    O    0.66077   0.19037   0.16054   1.000
    O316    O    0.57060   0.17843   0.17368   1.000
    O317    O    0.65242   0.28125   0.19676   1.000
    O318    O    0.74942   0.39381   0.18661   1.000
    O319    O    0.43093   0.03253   0.17081   1.000
    O320    O    0.49403   0.09386   0.17558   1.000
    O321    O    0.36704   0.98328   0.17090   1.000
    O322    O    0.45418   0.42596   0.16215   1.000
    O323    O    0.39387   0.40110   0.17524   1.000
    O324    O    0.52891   0.52902   0.19010   1.000
    O325    O    0.73628   0.16261   0.20787   1.000
    O326    O    0.08291   0.17592   0.18218   1.000
    O327    O    0.06543   0.22121   0.21151   1.000
    O328    O    0.44185   0.69509   0.20844   1.000
    O329    O    0.40672   0.05701   0.21355   1.000
    O330    O    0.89973   0.02662   0.22713   1.000
    O331    O    0.13950   0.17119   0.24055   1.000
    O332    O    0.50949   0.15625   0.22075   1.000
    O333    O    0.61827   0.64753   0.21292   1.000
    O334    O    0.61264   0.93604   0.21442   1.000
    O335    O    0.65814   0.91515   0.25946   1.000
    O336    O    0.58330   0.62785   0.28113   1.000
    O337    O    0.71559   0.37611   0.22957   1.000
    O338    O    0.76745   0.45542   0.24654   1.000
    O339    O    0.87327   0.56512   0.24525   1.000
    O340    O    0.78868   0.13734   0.23753   1.000
    O341    O    0.84332   0.10282   0.25727   1.000
    O342    O    0.45507   0.13394   0.24484   1.000
    O343    O    0.38856   0.09497   0.26488   1.000
    O344    O    0.51316   0.20874   0.26608   1.000
    O345    O    0.77400   0.17570   0.28111   1.000
    O346    O    0.27934   0.98227   0.26765   1.000
    O347    O    0.05801   0.26667   0.25279   1.000
    O348    O    0.11169   0.24541   0.28982   1.000
    O349    O    0.89415   0.06646   0.27514   1.000
    O350    O    0.94719   0.03385   0.29879   1.000
    O351    O    0.82716   0.53979   0.27161   1.000
    O352    O    0.88962   0.62374   0.29490   1.000
    O353    O    0.72082   0.83312   0.29725   1.000
    O354    O    0.77953   0.51163   0.29752   1.000
    O355    O    0.32643   0.05562   0.28688   1.000
    O356    O    0.26701   0.02065   0.31203   1.000
    O357    O    0.18880   0.17134   0.30454   1.000
    O358    O    0.15752   0.21408   0.30715   1.000
    O359    O    0.89059   0.10510   0.32401   1.000
    O360    O    0.01441   0.74696   0.30589   1.000
    O361    O    0.37207   0.12792   0.30743   1.000
    O362    O    0.99740   0.00147   0.31891   1.000
    O363    O    0.06413   0.96961   0.35242   1.000
    O364    O    0.71081   0.89068   0.31302   1.000
    O365    O    0.71288   0.95031   0.34834   1.000
    O366    O    0.95622   0.71004   0.32268   1.000
    O367    O    0.90776   0.69279   0.35140   1.000
    O368    O    0.76045   0.87683   0.36786   1.000
    O369    O    0.01064   0.78828   0.35493   1.000
    O370    O    0.17056   0.26551   0.37624   1.000
    O371    O    0.99952   0.04288   0.37666   1.000
    O372    O    0.21545   0.98542   0.33983   1.000
    O373    O    0.24860   0.06194   0.35592   1.000
    O374    O    0.15241   0.95479   0.37180   1.000
    O375    O    0.64563   0.65954   0.37605   1.000
    O376    O    0.70643   0.64360   0.39349   1.000
    O377    O    0.86789   0.69546   0.38556   1.000
    O378    O    0.93187   0.75936   0.40031   1.000
    O379    O    0.07107   0.89601   0.39349   1.000
    O380    O    0.99504   0.81764   0.40207   1.000
    O381    O    0.72889   0.00974   0.40093   1.000
    O382    O    0.76494   0.97292   0.42587   1.000
    O383    O    0.16045   0.99929   0.47096   1.000
    O384    O    0.70841   0.68737   0.45531   1.000
    O385    O    0.81141   0.87601   0.43137   1.000
    O386    O    0.79339   0.92759   0.43689   1.000
    O387    O    0.96713   0.83047   0.44442   1.000
    O388    O    0.17984   0.30808   0.43493   1.000
    O389    O    0.23177   0.28753   0.46022   1.000
    O390    O    0.83946   0.00064   0.52894   1.000
    O391    O    0.28609   0.26834   0.48830   1.000
    O392    O    0.29159   0.31264   0.54463   1.000
    O393    O    0.71390   0.73168   0.51162   1.000
    O394    O    0.76823   0.71249   0.53969   1.000
    O395    O    0.03280   0.16950   0.55546   1.000
    O396    O    0.20654   0.07233   0.56301   1.000
    O397    O    0.23499   0.02702   0.57403   1.000
    O398    O    0.18852   0.12393   0.56853   1.000
    O399    O    0.82014   0.69193   0.56498   1.000
    O400    O    0.82943   0.73451   0.62368   1.000
    O401    O    0.00493   0.18231   0.59782   1.000
    O402    O    0.06807   0.24060   0.59958   1.000
    O403    O    0.00037   0.95702   0.62330   1.000
    O404    O    0.23951   0.12312   0.63204   1.000
    O405    O    0.27105   0.99020   0.59892   1.000
    O406    O    0.29358   0.35640   0.60646   1.000
    O407    O    0.35437   0.34045   0.62389   1.000
    O408    O    0.92888   0.10393   0.60640   1.000
    O409    O    0.84754   0.04520   0.62813   1.000
    O410    O    0.93585   0.03040   0.64750   1.000
    O411    O    0.28709   0.04966   0.65156   1.000
    O412    O    0.13204   0.30451   0.61430   1.000
    O413    O    0.98935   0.21166   0.64499   1.000
    O414    O    0.09218   0.30717   0.64851   1.000
    O415    O    0.75141   0.93811   0.64402   1.000
    O416    O    0.10946   0.89498   0.67599   1.000
    O417    O    0.41667   0.37215   0.71876   1.000
    O418    O    0.78455   0.01463   0.66012   1.000
    O419    O    0.73298   0.97938   0.68793   1.000
    O420    O    0.00259   0.99855   0.68105   1.000
    O421    O    0.05274   0.96610   0.70118   1.000
    O422    O    0.62790   0.87209   0.69252   1.000
    O423    O    0.84246   0.78593   0.69278   1.000
    O424    O    0.88829   0.75460   0.71013   1.000
    O425    O    0.04375   0.28989   0.67726   1.000
    O426    O    0.98560   0.25294   0.69410   1.000
    O427    O    0.81119   0.82867   0.69539   1.000
    O428    O    0.28918   0.10929   0.68688   1.000
    O429    O    0.27915   0.16684   0.70265   1.000
    O430    O    0.11030   0.37621   0.70500   1.000
    O431    O    0.22041   0.48831   0.70239   1.000
    O432    O    0.22598   0.82434   0.71876   1.000
    O433    O    0.34190   0.08485   0.74044   1.000
    O434    O    0.67354   0.94440   0.71307   1.000
    O435    O    0.61143   0.90505   0.73505   1.000
    O436    O    0.10582   0.93354   0.72483   1.000
    O437    O    0.15670   0.89722   0.74271   1.000
    O438    O    0.86048   0.82880   0.75938   1.000
    O439    O    0.72062   0.01774   0.73229   1.000
    O440    O    0.48684   0.79128   0.73386   1.000
    O441    O    0.17273   0.46016   0.72826   1.000
    O442    O    0.23247   0.54453   0.75333   1.000
    O443    O    0.12656   0.43483   0.75457   1.000
    O444    O    0.10017   0.97332   0.77285   1.000
    O445    O    0.94197   0.73333   0.74715   1.000
    O446    O    0.93454   0.77878   0.78844   1.000
    O447    O    0.21132   0.86269   0.76236   1.000
    O448    O    0.26371   0.83740   0.79200   1.000
    O449    O    0.54492   0.86609   0.75510   1.000
    O450    O    0.49050   0.84376   0.77920   1.000
    O451    O    0.55799   0.30482   0.79153   1.000
    O452    O    0.59326   0.94301   0.78638   1.000
    O453    O    0.28434   0.62385   0.77028   1.000
    O454    O    0.34750   0.71868   0.80307   1.000
    O455    O    0.21087   0.89796   0.82022   1.000
    O456    O    0.25051   0.60618   0.81324   1.000
    O457    O    0.38166   0.35249   0.78695   1.000
    O458    O    0.47105   0.47100   0.80979   1.000
    O459    O    0.49668   0.39323   0.82179   1.000
    O460    O    0.38747   0.06403   0.78549   1.000
    O461    O    0.39362   0.11867   0.82742   1.000
    O462    O    0.31660   0.31884   0.82044   1.000
    O463    O    0.19856   0.22748   0.82519   1.000
    O464    O    0.03623   0.11244   0.83291   1.000
    O465    O    0.50594   0.90615   0.82436   1.000
    O466    O    0.42934   0.82154   0.82620   1.000
    O467    O    0.91705   0.82406   0.81777   1.000
    O468    O    0.88771   0.86493   0.83054   1.000
    O469    O    0.60608   0.59889   0.82436   1.000
    O470    O    0.63294   0.01674   0.82904   1.000
    O471    O    0.56904   0.96749   0.82914   1.000
    O472    O    0.56573   0.35419   0.84405   1.000
    O473    O    0.61178   0.32180   0.86641   1.000
    O474    O    0.00374   0.82628   0.89626   1.000
    O475    O    0.33917   0.80958   0.83935   1.000
    O476    O    0.29393   0.85691   0.86617   1.000
    O477    O    0.54579   0.57405   0.83752   1.000
    O478    O    0.49099   0.56310   0.85708   1.000
    O479    O    0.67963   0.24425   0.87237   1.000
    O480    O    0.60045   0.65154   0.86272   1.000
    O481    O    0.53353   0.97602   0.86506   1.000
    O482    O    0.43483   0.78666   0.90629   1.000
    O483    O    0.26448   0.29865   0.85091   1.000
    O484    O    0.20884   0.27479   0.88095   1.000
    O485    O    0.33466   0.37615   0.87779   1.000
    O486    O    0.58354   0.40167   0.90647   1.000
    O487    O    0.94465   0.06442   0.87581   1.000
    O488    O    0.00900   0.11622   0.87661   1.000
    O489    O    0.07759   0.17966   0.89042   1.000
    O490    O    0.26179   0.89414   0.88404   1.000
    O491    O    0.22207   0.92536   0.88794   1.000
    O492    O    0.40186   0.17454   0.87253   1.000
    O493    O    0.44739   0.14881   0.91290   1.000
    O494    O    0.44645   0.56867   0.88273   1.000
    O495    O    0.50997   0.63214   0.89424   1.000
    O496    O    0.71879   0.78538   0.89475   1.000
    O497    O    0.65434   0.74039   0.89714   1.000
    O498    O    0.57756   0.68691   0.89797   1.000
    O499    O    0.99040   0.13375   0.92735   1.000
    O500    O    0.79326   0.18594   0.93812   1.000
    O501    O    0.31370   0.88254   0.93610   1.000
    O502    O    0.67049   0.29402   0.90538   1.000
    O503    O    0.65782   0.35077   0.94339   1.000
    O504    O    0.73140   0.27079   0.94466   1.000
    O505    O    0.70836   0.82733   0.93342   1.000
    O506    O    0.53684   0.70273   0.92536   1.000
    O507    O    0.15541   0.25669   0.91478   1.000
    O508    O    0.22112   0.32298   0.93546   1.000
    O509    O    0.10149   0.23690   0.94999   1.000
    O510    O    0.83330   0.95606   0.95678   1.000
    O511    O    0.08387   0.80357   0.95493   1.000
    O512    O    0.64014   0.39997   0.96786   1.000
    O513    O    0.61311   0.44433   0.97635   1.000
    O514    O    0.49789   0.12175   0.95644   1.000
    O515    O    0.76440   0.91273   0.96591   1.000
    O516    O    0.70000   0.87250   0.97332   1.000
    O517    O    0.11822   0.90665   0.96993   1.000
    O518    O    0.04643   0.20730   0.97264   1.000
    O519    O    0.79109   0.24590   0.97951   1.000
loop_
    _geom_bond_atom_site_label_1
    _geom_bond_atom_site_label_2
    _geom_bond_distance
    _geom_bond_site_symmetry_2
    _ccdc_geom_bond_type
    C62    O248      0.54413      .   S
    C154   O248      0.54413      .   S
    C61    O249      0.54546      .   S
    C152   O249      0.54546      .   S
    C158   O250      0.73924      .   S
    C159   O250      0.73924      .   S
    C158   O251      0.67588      .   S
    C157   O251      0.67588      .   S
    C158   O252      0.54526  1_554   S
    C65    O252      0.54526      .   S
    C207   O253      0.67403      .   S
    C154   O253      0.67403      .   S
    C207   O254      0.69575      .   S
    C156   O254      0.69575      .   S
    C207   O255      0.52757  1_554   S
    C67    O255      0.52757      .   S
    C137   O256      0.68900      .   S
    C200   O256      0.68900      .   S
    C137   O257      0.69433      .   S
    C138   O257      0.69433      .   S
    C137   O258      0.54222  1_554   S
    C49    O258      0.54222      .   S
    C240   O259      1.00933      .   S
    C7     O259      1.00933      .   S
    C240   O260      0.65874  1_544   S
    C165   O260      0.65874      .   S
    C159   O261      0.63378      .   S
    C239   O261      0.63378      .   S
    C159   O262      0.64876  1_554   S
    C238   O262      0.64876      .   S
    C153   O263      0.73954      .   S
    C152   O263      0.73954      .   S
    C153   O264      0.62356      .   S
    C237   O264      0.62356      .   S
    C153   O265      0.65876      .   S
    C236   O265      0.65876  1_566   S
    C38    O266      0.54003      .   S
    C124   O266      0.54003      .   S
    C224   O267      1.00909      .   S
    C3     O267      1.00909      .   S
    C224   O268      0.65877  1_554   S
    C117   O268      0.65877      .   S
    C200   O269      0.67045  1_655   S
    C136   O269      0.67045      .   S
    C200   O270      1.00589  1_654   S
    C4     O270      1.00589      .   S
    C7     O271      0.99446      .   S
    C242   O271      0.99446      .   S
    C7     O272      1.02537      .   S
    C214   O272      1.02537  1_455   S
    C7     O273      1.00580      .   S
    C212   O273      1.00580  1_456   S
    C79    O274      0.54220      .   S
    C173   O274      0.54220  1_556   S
    C50    O275      0.54620      .   S
    C139   O275      0.54620      .   S
    C152   O276      0.67553      .   S
    C151   O276      0.67553      .   S
    C105   O277      0.62361      .   S
    C221   O277      0.62361      .   S
    C105   O278      0.73952      .   S
    C104   O278      0.73952      .   S
    C105   O279      0.65881      .   S
    C220   O279      0.65881  1_556   S
    C154   O280      0.67239      .   S
    C206   O280      0.67239      .   S
    C77    O281      0.52765      .   S
    C211   O281      0.52765  1_556   S
    C75    O282      0.54530      .   S
    C170   O282      0.54530  1_556   S
    C242   O283      0.64880      .   S
    C171   O283      0.64880  1_556   S
    C66    O284      0.52533      .   S
    C205   O284      0.52533      .   S
    C138   O285      0.71607      .   S
    C139   O285      0.71607      .   S
    C138   O286      0.69564      .   S
    C201   O286      0.69564      .   S
    C139   O287      0.67588      .   S
    C140   O287      0.67588      .   S
    C205   O288      0.69573      .   S
    C150   O288      0.69573      .   S
    C205   O289      0.67158      .   S
    C148   O289      0.67158      .   S
    C151   O290      0.71627      .   S
    C150   O290      0.71627      .   S
    C151   O291      0.54633      .   S
    C60    O291      0.54633      .   S
    C46    O292      0.52546      .   S
    C197   O292      0.52546      .   S
    C157   O293      0.71831      .   S
    C156   O293      0.71831      .   S
    C157   O294      0.54666      .   S
    C64    O294      0.54666      .   S
    C233   O295      0.62366      .   S
    C141   O295      0.62366      .   S
    C156   O296      0.69419      .   S
    C155   O296      0.69419      .   S
    C124   O297      0.67154      .   S
    C197   O297      0.67154      .   S
    C124   O298      0.67040      .   S
    C196   O298      0.67040      .   S
    C136   O299      0.67160  1_455   S
    C201   O299      0.67160      .   S
    C136   O300      0.54011      .   S
    C48    O300      0.54011      .   S
    C42    O301      0.54408      .   S
    C130   O301      0.54408      .   S
    C58    O302      0.54011      .   S
    C148   O302      0.54011      .   S
    C150   O303      0.69308      .   S
    C149   O303      0.69308      .   S
    C148   O304      0.67038      .   S
    C204   O304      0.67038      .   S
    C21    O305      0.54557      .   S
    C104   O305      0.54557      .   S
    C104   O306      0.67549      .   S
    C103   O306      0.67549      .   S
    C197   O307      0.69568      .   S
    C126   O307      0.69568      .   S
    C201   O308      0.52546      .   S
    C56    O308      0.52546      .   S
    C206   O309      0.68845      .   S
    C155   O309      0.68845      .   S
    C206   O310      1.02560      .   S
    C5     O310      1.02560      .   S
    C82    O311      0.54407      .   S
    C178   O311      0.54407      .   S
    C141   O312      0.73953      .   S
    C140   O312      0.73953      .   S
    C141   O313      0.65884      .   S
    C232   O313      0.65884      .   S
    C140   O314      0.54547      .   S
    C51    O314      0.54547      .   S
    C3     O315      1.00570      .   S
    C196   O315      1.00570      .   S
    C3     O316      1.02569      .   S
    C198   O316      1.02569      .   S
    C3     O317      0.99424      .   S
    C226   O317      0.99424      .   S
    C227   O318      0.63362      .   S
    C123   O318      0.63362      .   S
    C130   O319      0.67395      .   S
    C199   O319      0.67395      .   S
    C130   O320      0.67232      .   S
    C198   O320      0.67232      .   S
    C47    O321      0.52753      .   S
    C199   O321      0.52753  1_545   S
    C149   O322      0.68682      .   S
    C204   O322      0.68682      .   S
    C149   O323      0.54524      .   S
    C59    O323      0.54524      .   S
    C204   O324      1.00576      .   S
    C5     O324      1.00576      .   S
    C196   O325      0.68864      .   S
    C125   O325      0.68864      .   S
    C214   O326      0.67227      .   S
    C178   O326      0.67227      .   S
    C214   O327      0.68846      .   S
    C179   O327      0.68846      .   S
    C155   O328      0.54228      .   S
    C63    O328      0.54228      .   S
    C199   O329      0.69576      .   S
    C132   O329      0.69576      .   S
    C41    O330      0.54546      .   S
    C128   O330      0.54546      .   S
    C178   O331      0.67379      .   S
    C215   O331      0.67379      .   S
    C198   O332      0.68842      .   S
    C131   O332      0.68842      .   S
    C232   O333      1.00908      .   S
    C5     O333      1.00908      .   S
    C103   O334      0.54631      .   S
    C20    O334      0.54631      .   S
    C103   O335      0.71626      .   S
    C102   O335      0.71626      .   S
    C5     O336      0.99472      .   S
    C234   O336      0.99472      .   S
    C123   O337      0.64882      .   S
    C226   O337      0.64882      .   S
    C123   O338      0.73935      .   S
    C122   O338      0.73935      .   S
    C34    O339      0.54668      .   S
    C121   O339      0.54668      .   S
    C126   O340      0.69408      .   S
    C125   O340      0.69408      .   S
    C126   O341      0.71629      .   S
    C127   O341      0.71629      .   S
    C132   O342      0.69424      .   S
    C131   O342      0.69424      .   S
    C132   O343      0.71828      .   S
    C133   O343      0.71828      .   S
    C131   O344      0.54220      .   S
    C43    O344      0.54220      .   S
    C125   O345      0.54285      .   S
    C39    O345      0.54285      .   S
    C45    O346      0.54528      .   S
    C134   O346      0.54528  1_545   S
    C179   O347      0.54231      .   S
    C83    O347      0.54231      .   S
    C179   O348      0.69423      .   S
    C180   O348      0.69423      .   S
    C128   O349      0.67558      .   S
    C127   O349      0.67558      .   S
    C128   O350      0.73951      .   S
    C129   O350      0.73951      .   S
    C121   O351      0.67592      .   S
    C122   O351      0.67592      .   S
    C121   O352      0.71832      .   S
    C120   O352      0.71832      .   S
    C26    O353      0.52536      .   S
    C189   O353      0.52536      .   S
    C122   O354      0.54523      .   S
    C35    O354      0.54523      .   S
    C134   O355      0.67590      .   S
    C133   O355      0.67590      .   S
    C134   O356      0.73926      .   S
    C135   O356      0.73926      .   S
    C215   O357      0.52775      .   S
    C87    O357      0.52775      .   S
    C215   O358      0.69581      .   S
    C180   O358      0.69581      .   S
    C127   O359      0.54626      .   S
    C40    O359      0.54626      .   S
    C33    O360      0.54235      .   S
    C119   O360      0.54235  1_655   S
    C133   O361      0.54669      .   S
    C44    O361      0.54669      .   S
    C228   O362      0.65887  1_465   S
    C129   O362      0.65887      .   S
    C228   O363      1.00959      .   S
    C2     O363      1.00959      .   S
    C102   O364      0.69572      .   S
    C189   O364      0.69572      .   S
    C102   O365      0.69427      .   S
    C101   O365      0.69427      .   S
    C120   O366      0.69423      .   S
    C119   O366      0.69423      .   S
    C120   O367      0.69568      .   S
    C195   O367      0.69568      .   S
    C189   O368      0.67167      .   S
    C100   O368      0.67167      .   S
    C119   O369      0.68831  1_655   S
    C194   O369      0.68831      .   S
    C180   O370      0.71828      .   S
    C181   O370      0.71828      .   S
    C129   O371      0.62356      .   S
    C229   O371      0.62356  1_455   S
    C135   O372      0.64875  1_545   S
    C230   O372      0.64875      .   S
    C135   O373      0.63359      .   S
    C231   O373      0.63359      .   S
    C230   O374      0.99432      .   S
    C2     O374      0.99432      .   S
    C234   O375      0.64888      .   S
    C147   O375      0.64888      .   S
    C235   O376      0.63360      .   S
    C147   O376      0.63360      .   S
    C195   O377      0.52755      .   S
    C37    O377      0.52755      .   S
    C195   O378      0.67399      .   S
    C118   O378      0.67399      .   S
    C194   O379      1.02517      .   S
    C2     O379      1.02517      .   S
    C194   O380      0.67270  1_455   S
    C118   O380      0.67270      .   S
    C101   O381      0.54222  1_565   S
    C19    O381      0.54222      .   S
    C101   O382      0.68895      .   S
    C188   O382      0.68895      .   S
    C2     O383      1.00576      .   S
    C192   O383      1.00576  1_545   S
    C147   O384      0.73941      .   S
    C146   O384      0.73941      .   S
    C100   O385      0.54014      .   S
    C18    O385      0.54014      .   S
    C100   O386      0.67044      .   S
    C188   O386      0.67044      .   S
    C118   O387      0.54421      .   S
    C32    O387      0.54421      .   S
    C181   O388      0.54669      .   S
    C84    O388      0.54669      .   S
    C181   O389      0.67597      .   S
    C182   O389      0.67597      .   S
    C188   O390      1.00577  1_565   S
    C1     O390      1.00577      .   S
    C85    O391      0.54525      .   S
    C182   O391      0.54525      .   S
    C182   O392      0.73938      .   S
    C183   O392      0.73938      .   S
    C146   O393      0.54523      .   S
    C55    O393      0.54523      .   S
    C146   O394      0.67569      .   S
    C145   O394      0.67569      .   S
    C22    O395      0.54415      .   S
    C106   O395      0.54415      .   S
    C192   O396      0.67041      .   S
    C112   O396      0.67041      .   S
    C192   O397      0.68897      .   S
    C113   O397      0.68897      .   S
    C28    O398      0.54011      .   S
    C112   O398      0.54011      .   S
    C54    O399      0.54644      .   S
    C145   O399      0.54644      .   S
    C145   O400      0.71880      .   S
    C144   O400      0.71880      .   S
    C106   O401      0.67241      .   S
    C190   O401      0.67241  1_655   S
    C106   O402      0.67400      .   S
    C191   O402      0.67400      .   S
    C217   O403      0.62353  1_655   S
    C93    O403      0.62353      .   S
    C112   O404      0.67168      .   S
    C193   O404      0.67168      .   S
    C29    O405      0.54240      .   S
    C113   O405      0.54240  1_545   S
    C183   O406      0.63358      .   S
    C247   O406      0.63358      .   S
    C183   O407      0.64891      .   S
    C246   O407      0.64891      .   S
    C1     O408      1.02544      .   S
    C190   O408      1.02544      .   S
    C1     O409      0.99444      .   S
    C218   O409      0.99444      .   S
    C1     O410      1.00976      .   S
    C216   O410      1.00976      .   S
    C113   O411      0.69425      .   S
    C114   O411      0.69425      .   S
    C27    O412      0.52788      .   S
    C191   O412      0.52788      .   S
    C190   O413      0.68848      .   S
    C107   O413      0.68848  1_455   S
    C191   O414      0.69572      .   S
    C108   O414      0.69572      .   S
    C219   O415      0.63374      .   S
    C99    O415      0.63374      .   S
    C10    O416      0.54601      .   S
    C91    O416      0.54601      .   S
    C246   O417      0.99427      .   S
    C6     O417      0.99427      .   S
    C218   O418      0.64875      .   S
    C99    O418      0.64875  1_565   S
    C99    O419      0.73924      .   S
    C98    O419      0.73924      .   S
    C93    O420      0.65886      .   S
    C216   O420      0.65886  1_645   S
    C93    O421      0.73956      .   S
    C92    O421      0.73956      .   S
    C14    O422      0.54671      .   S
    C97    O422      0.54671      .   S
    C144   O423      0.69569      .   S
    C203   O423      0.69569      .   S
    C144   O424      0.69426      .   S
    C143   O424      0.69426      .   S
    C107   O425      0.69423      .   S
    C108   O425      0.69423      .   S
    C107   O426      0.54232  1_455   S
    C23    O426      0.54232      .   S
    C57    O427      0.52766      .   S
    C203   O427      0.52766      .   S
    C193   O428      0.69575      .   S
    C114   O428      0.69575      .   S
    C193   O429      0.52527      .   S
    C36    O429      0.52527      .   S
    C108   O430      0.71832      .   S
    C109   O430      0.71832      .   S
    C25    O431      0.54523      .   S
    C110   O431      0.54523      .   S
    C9     O432      0.54158      .   S
    C89    O432      0.54158      .   S
    C114   O433      0.71625      .   S
    C115   O433      0.71625      .   S
    C97    O434      0.67592      .   S
    C98    O434      0.67592      .   S
    C97    O435      0.71797      .   S
    C96    O435      0.71797      .   S
    C91    O436      0.67571      .   S
    C92    O436      0.67571      .   S
    C91    O437      0.71638      .   S
    C90    O437      0.71638      .   S
    C203   O438      0.67394      .   S
    C142   O438      0.67394      .   S
    C98    O439      0.54530  1_565   S
    C15    O439      0.54530      .   S
    C13    O440      0.54231      .   S
    C95    O440      0.54231      .   S
    C110   O441      0.67595      .   S
    C109   O441      0.67595      .   S
    C110   O442      0.73940      .   S
    C111   O442      0.73940      .   S
    C109   O443      0.54668      .   S
    C24    O443      0.54668      .   S
    C92    O444      0.54542      .   S
    C11    O444      0.54542      .   S
    C53    O445      0.54234      .   S
    C143   O445      0.54234      .   S
    C143   O446      0.68843      .   S
    C202   O446      0.68843      .   S
    C89    O447      0.69463      .   S
    C90    O447      0.69463      .   S
    C89    O448      0.68953      .   S
    C184   O448      0.68953      .   S
    C95    O449      0.69442      .   S
    C96    O449      0.69442      .   S
    C95    O450      0.68839      .   S
    C186   O450      0.68839      .   S
    C73    O451      0.54264      .   S
    C167   O451      0.54264      .   S
    C96    O452      0.69594      .   S
    C187   O452      0.69594      .   S
    C222   O453      0.64888      .   S
    C111   O453      0.64888      .   S
    C222   O454      0.99414      .   S
    C0     O454      0.99414      .   S
    C90    O455      0.69563      .   S
    C185   O455      0.69563      .   S
    C111   O456      0.63357      .   S
    C223   O456      0.63357      .   S
    C6     O457      1.00940      .   S
    C244   O457      1.00940      .   S
    C6     O458      1.00577      .   S
    C208   O458      1.00577      .   S
    C6     O459      1.02581      .   S
    C210   O459      1.02581      .   S
    C30    O460      0.54629      .   S
    C115   O460      0.54629      .   S
    C115   O461      0.67553      .   S
    C116   O461      0.67553      .   S
    C244   O462      0.65880      .   S
    C177   O462      0.65880      .   S
    C81    O463      0.54547      .   S
    C176   O463      0.54547      .   S
    C86    O464      0.52546      .   S
    C213   O464      0.52546      .   S
    C186   O465      0.67233      .   S
    C94    O465      0.67233      .   S
    C186   O466      1.02560      .   S
    C0     O466      1.02560      .   S
    C142   O467      0.67227      .   S
    C202   O467      0.67227      .   S
    C142   O468      0.54409      .   S
    C52    O468      0.54409      .   S
    C69    O469      0.54277      .   S
    C161   O469      0.54277      .   S
    C187   O470      0.52766  1_565   S
    C17    O470      0.52766      .   S
    C187   O471      0.67399      .   S
    C94    O471      0.67399      .   S
    C167   O472      0.68842      .   S
    C210   O472      0.68842      .   S
    C167   O473      0.69420      .   S
    C168   O473      0.69420      .   S
    C202   O474      1.02537  1_655   S
    C4     O474      1.02537      .   S
    C184   O475      1.00577      .   S
    C0     O475      1.00577      .   S
    C184   O476      0.67041      .   S
    C88    O476      0.67041      .   S
    C208   O477      0.68903      .   S
    C161   O477      0.68903      .   S
    C208   O478      0.67040      .   S
    C160   O478      0.67040      .   S
    C74    O479      0.54665      .   S
    C169   O479      0.54665      .   S
    C161   O480      0.69430      .   S
    C162   O480      0.69430      .   S
    C94    O481      0.54358      .   S
    C12    O481      0.54358      .   S
    C0     O482      1.00938      .   S
    C220   O482      1.00938      .   S
    C176   O483      0.73952      .   S
    C177   O483      0.73952      .   S
    C176   O484      0.67564      .   S
    C175   O484      0.67564      .   S
    C177   O485      0.62367      .   S
    C245   O485      0.62367      .   S
    C210   O486      0.67238      .   S
    C166   O486      0.67238      .   S
    C78    O487      0.54014      .   S
    C172   O487      0.54014      .   S
    C213   O488      0.67138      .   S
    C172   O488      0.67138  1_655   S
    C213   O489      0.69564      .   S
    C174   O489      0.69564      .   S
    C185   O490      0.67155      .   S
    C88    O490      0.67155      .   S
    C185   O491      0.52546      .   S
    C16    O491      0.52546      .   S
    C116   O492      0.54549      .   S
    C31    O492      0.54549      .   S
    C116   O493      0.73953      .   S
    C117   O493      0.73953      .   S
    C160   O494      0.54011      .   S
    C68    O494      0.54011      .   S
    C160   O495      0.67160      .   S
    C209   O495      0.67160      .   S
    C70    O496      0.54633      .   S
    C163   O496      0.54633      .   S
    C162   O497      0.71624      .   S
    C163   O497      0.71624      .   S
    C162   O498      0.69575      .   S
    C209   O498      0.69575      .   S
    C172   O499      0.67063      .   S
    C212   O499      0.67063  1_455   S
    C243   O500      0.63374      .   S
    C171   O500      0.63374      .   S
    C88    O501      0.54006      .   S
    C8     O501      0.54006      .   S
    C168   O502      0.71834      .   S
    C169   O502      0.71834      .   S
    C168   O503      0.69570      .   S
    C211   O503      0.69570      .   S
    C169   O504      0.67590      .   S
    C170   O504      0.67590      .   S
    C163   O505      0.67550      .   S
    C164   O505      0.67550      .   S
    C209   O506      0.52533      .   S
    C76    O506      0.52533      .   S
    C175   O507      0.71624      .   S
    C174   O507      0.71624      .   S
    C175   O508      0.54608      .   S
    C80    O508      0.54608      .   S
    C174   O509      0.69431      .   S
    C173   O509      0.69431      .   S
    C241   O510      0.62350      .   S
    C165   O510      0.62350      .   S
    C238   O511      0.99452      .   S
    C4     O511      0.99452      .   S
    C166   O512      0.67401      .   S
    C211   O512      0.67401      .   S
    C166   O513      0.54385      .   S
    C72    O513      0.54385      .   S
    C225   O514      0.62362      .   S
    C117   O514      0.62362      .   S
    C164   O515      0.73952      .   S
    C165   O515      0.73952      .   S
    C164   O516      0.54547      .   S
    C71    O516      0.54547      .   S
    C4     O517      1.00938      .   S
    C236   O517      1.00938      .   S
    C212   O518      0.68901      .   S
    C173   O518      0.68901      .   S
    C171   O519      0.73924      .   S
    C170   O519      0.73924      .   S
