# CIF file generated by openbabel 2.4.90, see http://openbabel.sf.net
data_I
_chemical_name_common ''
_cell_length_a 5.996
_cell_length_b 15.947
_cell_length_c 16.662
_cell_angle_alpha 90
_cell_angle_beta 90.015
_cell_angle_gamma 90.015
_space_group_name_H-M_alt 'P 1'
_space_group_name_Hall 'P 1'
loop_
    _symmetry_equiv_pos_as_xyz
    x,y,z
loop_
    _atom_site_label
    _atom_site_type_symbol
    _atom_site_fract_x
    _atom_site_fract_y
    _atom_site_fract_z
    _atom_site_occupancy
    Mc0     Mc   0.57385   0.35631   0.83866   1.000
    Mc1     Mc   0.23519   0.27708   0.04091   1.000
    Mc2     Mc   0.92593   0.85620   0.16133   1.000
    Mc3     Mc   0.26463   0.77703   0.95953   1.000
    Mc4     Mc   0.07373   0.64419   0.66127   1.000
    Mc5     Mc   0.73488   0.72318   0.45945   1.000
    Mc6     Mc   0.42653   0.14411   0.33868   1.000
    Mc7     Mc   0.76515   0.22322   0.54049   1.000
