# CIF file generated by openbabel 2.4.90, see http://openbabel.sf.net
data_I
_chemical_name_common ''
_cell_length_a 5.996
_cell_length_b 15.947
_cell_length_c 16.662
_cell_angle_alpha 90
_cell_angle_beta 90.015
_cell_angle_gamma 90.015
_space_group_name_H-M_alt 'P 1'
_space_group_name_Hall 'P 1'
loop_
    _symmetry_equiv_pos_as_xyz
    x,y,z
loop_
    _atom_site_label
    _atom_site_type_symbol
    _atom_site_fract_x
    _atom_site_fract_y
    _atom_site_fract_z
    _atom_site_occupancy
    H0      H    0.79195   0.03443   0.43132   1.000
    H1      H    0.70815   0.53447   0.56869   1.000
    H2      H    0.20860   0.46591   0.93141   1.000
    H3      H    0.29127   0.96580   0.06855   1.000
    N4      N    0.64026   0.06508   0.42734   1.000
    N5      N    0.85986   0.56514   0.57263   1.000
    N6      N    0.36030   0.43528   0.92739   1.000
    N7      N    0.13953   0.93517   0.07258   1.000
loop_
    _geom_bond_atom_site_label_1
    _geom_bond_atom_site_label_2
    _geom_bond_distance
    _geom_bond_site_symmetry_2
    _ccdc_geom_bond_type
    H3     N7        1.03477      .   S
    N4     H0        1.03476      .   S
    H1     N5        1.03476      .   S
    N6     H2        1.03477      .   S
