# CIF file generated by openbabel 2.4.90, see http://openbabel.sf.net
data_I
_chemical_name_common ''
_cell_length_a 5.996
_cell_length_b 15.947
_cell_length_c 16.662
_cell_angle_alpha 90
_cell_angle_beta 90.015
_cell_angle_gamma 90.015
_space_group_name_H-M_alt 'P 1'
_space_group_name_Hall 'P 1'
loop_
    _symmetry_equiv_pos_as_xyz
    x,y,z
loop_
    _atom_site_label
    _atom_site_type_symbol
    _atom_site_fract_x
    _atom_site_fract_y
    _atom_site_fract_z
    _atom_site_occupancy
    N0      N    0.28445   0.45060   0.92940   1.000
    N1      N    0.21540   0.95049   0.07057   1.000
    N2      N    0.78401   0.54981   0.57066   1.000
    N3      N    0.71610   0.04975   0.42933   1.000
    Zr4     Zr   0.20567   0.95407   0.32396   1.000
    O5      O    0.12350   0.91860   0.24804   1.000
    O6      O    0.40838   0.99230   0.37260   1.000
    O7      O    0.40313   0.88185   0.38088   1.000
    Zr8     Zr   0.29431   0.45417   0.67602   1.000
    O9      O    0.09687   0.38193   0.61908   1.000
    O10     O    0.09165   0.49239   0.62739   1.000
    O11     O    0.37639   0.41870   0.75194   1.000
    Zr12    Zr   0.70566   0.04631   0.17598   1.000
    O13     O    0.90315   0.11848   0.11914   1.000
    O14     O    0.90806   0.00802   0.12732   1.000
    O15     O    0.62377   0.08176   0.25191   1.000
    Zr16    Zr   0.79434   0.54642   0.82400   1.000
    O17     O    0.87633   0.58187   0.74805   1.000
    O18     O    0.59680   0.61854   0.88094   1.000
    O19     O    0.59188   0.50813   0.87265   1.000
loop_
    _geom_bond_atom_site_label_1
    _geom_bond_atom_site_label_2
    _geom_bond_distance
    _geom_bond_site_symmetry_2
    _ccdc_geom_bond_type
    Zr4    O5        1.47039      .   S
    N1     O5        3.05081      .   S
    Zr4    O6        1.58268      .   S
    N3     O6        2.26625  1_545   S
    Zr4    O7        1.90467      .   S
    N2     O7        6.57684      .   S
    Zr8    O9        1.90459      .   S
    N3     O9        6.57713  1_655   S
    Zr8    O10       1.58255      .   S
    N2     O10       2.26596  1_655   S
    Zr8    O11       1.47033      .   S
    N0     O11       3.05070      .   S
    Zr12   O13       1.90362      .   S
    N0     O13       6.57792  1_456   S
    Zr12   O14       1.58228      .   S
    N1     O14       2.26578  1_465   S
    Zr12   O15       1.47041      .   S
    N3     O15       3.05048      .   S
    Zr16   O17       1.47057      .   S
    N2     O17       3.05011      .   S
    Zr16   O18       1.90455      .   S
    N1     O18       6.57602  1_554   S
    Zr16   O19       1.58230      .   S
    N0     O19       2.26584      .   S
