# CIF file generated by openbabel 2.4.90, see http://openbabel.sf.net
data_I
_chemical_name_common ''
_cell_length_a 8.578
_cell_length_b 13.866
_cell_length_c 21.033
_cell_angle_alpha 109.128
_cell_angle_beta 92.71
_cell_angle_gamma 89.975
_space_group_name_H-M_alt 'P 1'
_space_group_name_Hall 'P 1'
loop_
    _symmetry_equiv_pos_as_xyz
    x,y,z
loop_
    _atom_site_label
    _atom_site_type_symbol
    _atom_site_fract_x
    _atom_site_fract_y
    _atom_site_fract_z
    _atom_site_occupancy
    H0      H    0.15159   0.48405   0.09455   1.000
    H1      H    0.15184   0.48506   0.59471   1.000
    H2      H    0.15176   0.98432   0.09453   1.000
    H3      H    0.15191   0.98512   0.59470   1.000
    H4      H    0.65153   0.48400   0.09450   1.000
    H5      H    0.65182   0.48506   0.59473   1.000
    H6      H    0.65176   0.98436   0.09453   1.000
    H7      H    0.65196   0.98515   0.59478   1.000
    H8      H    0.38285   0.45476   0.03571   1.000
    H9      H    0.38315   0.45490   0.53589   1.000
    H10     H    0.38290   0.95487   0.03575   1.000
    H11     H    0.38323   0.95493   0.53595   1.000
    H12     H    0.88285   0.45476   0.03574   1.000
    H13     H    0.88311   0.45490   0.53588   1.000
    H14     H    0.88287   0.95488   0.03576   1.000
    H15     H    0.88315   0.95495   0.53595   1.000
    H16     H    0.34877   0.38942   0.40569   1.000
    H17     H    0.34839   0.39006   0.90553   1.000
    H18     H    0.34884   0.88928   0.40572   1.000
    H19     H    0.34845   0.89002   0.90554   1.000
    H20     H    0.84872   0.38939   0.40567   1.000
    H21     H    0.84835   0.39011   0.90554   1.000
    H22     H    0.84879   0.88928   0.40571   1.000
    H23     H    0.84844   0.89002   0.90553   1.000
    H24     H    0.11736   0.41897   0.46465   1.000
    H25     H    0.11699   0.41885   0.96444   1.000
    H26     H    0.11739   0.91896   0.46471   1.000
    H27     H    0.11698   0.91891   0.96447   1.000
    H28     H    0.61738   0.41899   0.46467   1.000
    H29     H    0.61699   0.41883   0.96442   1.000
    H30     H    0.61743   0.91897   0.46469   1.000
    H31     H    0.61702   0.91893   0.96447   1.000
    H32     H    0.34832   0.01596   0.40540   1.000
    H33     H    0.34844   0.01689   0.90558   1.000
    H34     H    0.34846   0.51614   0.40538   1.000
    H35     H    0.34846   0.51699   0.90562   1.000
    H36     H    0.84832   0.01596   0.40539   1.000
    H37     H    0.84840   0.01689   0.90500   1.000
    H38     H    0.84841   0.51611   0.40530   1.000
    H39     H    0.84850   0.51702   0.90563   1.000
    H40     H    0.11722   0.04593   0.46417   1.000
    H41     H    0.11746   0.04607   0.96433   1.000
    H42     H    0.11724   0.54600   0.46416   1.000
    H43     H    0.11749   0.54609   0.96438   1.000
    H44     H    0.61723   0.04596   0.46416   1.000
    H45     H    0.61744   0.04610   0.96432   1.000
    H46     H    0.61725   0.54602   0.46419   1.000
    H47     H    0.61747   0.54607   0.96435   1.000
    H48     H    0.15185   0.11106   0.09432   1.000
    H49     H    0.15160   0.11168   0.59400   1.000
    H50     H    0.15205   0.61081   0.09431   1.000
    H51     H    0.15155   0.61166   0.59417   1.000
    H52     H    0.65179   0.11109   0.09431   1.000
    H53     H    0.65161   0.11171   0.59422   1.000
    H54     H    0.65209   0.61075   0.09430   1.000
    H55     H    0.65154   0.61166   0.59419   1.000
    H56     H    0.38302   0.08197   0.03549   1.000
    H57     H    0.38281   0.08187   0.53533   1.000
    H58     H    0.38313   0.58195   0.03554   1.000
    H59     H    0.38273   0.58188   0.53530   1.000
    H60     H    0.88304   0.08198   0.03551   1.000
    H61     H    0.88275   0.08187   0.53532   1.000
    H62     H    0.88307   0.58194   0.03555   1.000
    H63     H    0.88271   0.58189   0.53529   1.000
    C64     C    0.07477   0.04791   0.09481   1.000
    C65     C    0.07470   0.04853   0.59483   1.000
    C66     C    0.07478   0.54776   0.09480   1.000
    C67     C    0.07465   0.54851   0.59479   1.000
    C68     C    0.57473   0.04794   0.09480   1.000
    C69     C    0.57473   0.04853   0.59483   1.000
    C70     C    0.57476   0.54772   0.09479   1.000
    C71     C    0.57464   0.54851   0.59482   1.000
    C72     C    0.45914   0.01728   0.03350   1.000
    C73     C    0.45917   0.01737   0.53352   1.000
    C74     C    0.45916   0.51720   0.03350   1.000
    C75     C    0.45911   0.51739   0.53350   1.000
    C76     C    0.95914   0.01729   0.03352   1.000
    C77     C    0.95912   0.01737   0.53352   1.000
    C78     C    0.95912   0.51721   0.03352   1.000
    C79     C    0.95908   0.51739   0.53348   1.000
    C80     C    0.42567   0.45265   0.40519   1.000
    C81     C    0.42547   0.45331   0.90522   1.000
    C82     C    0.42563   0.95256   0.40522   1.000
    C83     C    0.42549   0.95328   0.90521   1.000
    C84     C    0.92562   0.45263   0.40518   1.000
    C85     C    0.92548   0.45333   0.90523   1.000
    C86     C    0.92561   0.95254   0.40521   1.000
    C87     C    0.92547   0.95329   0.90520   1.000
    C88     C    0.04113   0.48355   0.46650   1.000
    C89     C    0.04107   0.48366   0.96653   1.000
    C90     C    0.04113   0.98352   0.46653   1.000
    C91     C    0.04104   0.98370   0.96651   1.000
    C92     C    0.54113   0.48356   0.46652   1.000
    C93     C    0.54107   0.48365   0.96651   1.000
    C94     C    0.54118   0.98354   0.46650   1.000
    C95     C    0.54107   0.98371   0.96650   1.000
    O96     O    0.39982   0.49777   0.18337   1.000
    O97     O    0.39955   0.49880   0.68344   1.000
    O98     O    0.39980   0.99789   0.18338   1.000
    O99     O    0.39962   0.99884   0.68345   1.000
    O100    O    0.89980   0.49779   0.18338   1.000
    O101    O    0.89954   0.49880   0.68343   1.000
    O102    O    0.89978   0.99788   0.18338   1.000
    O103    O    0.89959   0.99884   0.68345   1.000
    O104    O    0.10074   0.31400   0.31672   1.000
    O105    O    0.10065   0.31508   0.81668   1.000
    O106    O    0.10062   0.81391   0.31669   1.000
    O107    O    0.10065   0.81504   0.81667   1.000
    O108    O    0.60075   0.31402   0.31670   1.000
    O109    O    0.60062   0.31507   0.81667   1.000
    O110    O    0.60060   0.81393   0.31669   1.000
    O111    O    0.60065   0.81503   0.81666   1.000
    O112    O    0.10059   0.00272   0.31666   1.000
    O113    O    0.10031   0.00387   0.81670   1.000
    O114    O    0.10064   0.50284   0.31667   1.000
    O115    O    0.10028   0.50393   0.81673   1.000
    O116    O    0.60056   0.00273   0.31660   1.000
    O117    O    0.60031   0.00385   0.81670   1.000
    O118    O    0.60062   0.50287   0.31667   1.000
    O119    O    0.60026   0.50392   0.81672   1.000
    O120    O    0.39990   0.18664   0.18329   1.000
    O121    O    0.39977   0.18747   0.68326   1.000
    O122    O    0.39987   0.68654   0.18326   1.000
    O123    O    0.39972   0.68747   0.68324   1.000
    O124    O    0.89988   0.18663   0.18328   1.000
    O125    O    0.89977   0.18748   0.68320   1.000
    O126    O    0.89987   0.68656   0.18327   1.000
    O127    O    0.89972   0.68747   0.68323   1.000
    O128    O    0.13587   0.11566   0.23055   1.000
    O129    O    0.13571   0.11660   0.73057   1.000
    O130    O    0.13588   0.61563   0.23053   1.000
    O131    O    0.13561   0.61661   0.73054   1.000
    O132    O    0.63587   0.11567   0.23054   1.000
    O133    O    0.63565   0.11662   0.73058   1.000
    O134    O    0.63585   0.61564   0.23052   1.000
    O135    O    0.63561   0.61661   0.73054   1.000
    O136    O    0.36476   0.38492   0.26949   1.000
    O137    O    0.36445   0.38596   0.76951   1.000
    O138    O    0.36467   0.88488   0.26947   1.000
    O139    O    0.36449   0.88594   0.76950   1.000
    O140    O    0.86476   0.38491   0.26947   1.000
    O141    O    0.86444   0.38597   0.76952   1.000
    O142    O    0.86465   0.88489   0.26947   1.000
    O143    O    0.86447   0.88594   0.76950   1.000
loop_
    _geom_bond_atom_site_label_1
    _geom_bond_atom_site_label_2
    _geom_bond_distance
    _geom_bond_site_symmetry_2
    _ccdc_geom_bond_type
    C74    H58       1.10001      .   S
    C74    H8        1.09999      .   S
    C74    C70       1.53176      .   S
    C74    C93       1.53598  1_554   S
    C72    H56       1.10002      .   S
    C72    H10       1.09962  1_545   S
    C72    C68       1.53179      .   S
    C72    C95       1.53618  1_544   S
    C78    H62       1.10002      .   S
    C78    H12       1.10003      .   S
    C78    C66       1.53188  1_655   S
    C78    C89       1.53612  1_654   S
    C76    H60       1.10003      .   S
    C76    H14       1.09960  1_545   S
    C76    C64       1.53189  1_655   S
    C76    C91       1.53626  1_644   S
    H54    C70       1.10044      .   S
    H50    C66       1.10042      .   S
    H52    C68       1.10049      .   S
    H48    C64       1.10046      .   S
    H4     C70       1.10032      .   S
    H6     C68       1.10013  1_565   S
    H2     C64       1.10009  1_565   S
    H0     C66       1.10053      .   S
    C84    H38       1.10079      .   S
    C84    H20       1.10049      .   S
    C84    C88       1.53173  1_655   S
    C80    H34       1.10053      .   S
    C80    H16       1.10047      .   S
    C80    C92       1.53160      .   S
    C86    H36       1.10011  1_565   S
    C86    H22       1.10047      .   S
    C86    C90       1.53182  1_655   S
    C82    H32       1.10009  1_565   S
    C82    H18       1.10051      .   S
    C82    C94       1.53134      .   S
    H44    C94       1.09935  1_545   S
    H42    C88       1.09998      .   S
    H40    C90       1.09955  1_545   S
    H46    C92       1.09998      .   S
    H24    C88       1.10003      .   S
    H28    C92       1.10003      .   S
    H30    C94       1.10017      .   S
    H26    C90       1.10005      .   S
    C94    C73       1.53693  1_565   S
    C88    C79       1.53640  1_455   S
    C92    C75       1.53624      .   S
    C90    C77       1.53643  1_465   S
    C79    H63       1.10000      .   S
    C79    H13       1.10003      .   S
    C79    C67       1.53188  1_655   S
    C75    H59       1.10001      .   S
    C75    H9        1.10005      .   S
    C75    C71       1.53180      .   S
    C77    H61       1.09998      .   S
    C77    H15       1.09964  1_545   S
    C77    C65       1.53198  1_655   S
    C73    H57       1.09999      .   S
    C73    H11       1.09961  1_545   S
    C73    C69       1.53188      .   S
    H49    C65       1.10170      .   S
    H51    C67       1.10042      .   S
    H55    C71       1.10045      .   S
    H53    C69       1.10047      .   S
    H3     C65       1.09986  1_565   S
    H1     C67       1.10055      .   S
    H5     C71       1.10051      .   S
    H7     C69       1.10013  1_565   S
    H37    C87       1.10298  1_545   S
    C87    H23       1.10051      .   S
    C87    C91       1.53187  1_655   S
    C83    H19       1.10052      .   S
    C83    H33       1.10010  1_565   S
    C83    C95       1.53161      .   S
    C81    H17       1.10051      .   S
    C81    H35       1.10050      .   S
    C81    C93       1.53174      .   S
    C85    H21       1.10049      .   S
    C85    H39       1.10049      .   S
    C85    C89       1.53183  1_655   S
    H45    C95       1.09956  1_545   S
    H41    C91       1.09958  1_545   S
    H47    C93       1.09997      .   S
    H43    C89       1.09995      .   S
    H29    C93       1.10002      .   S
    H25    C89       1.10002      .   S
    H27    C91       1.10006      .   S
    H31    C95       1.10006      .   S
