# CIF file generated by openbabel 2.4.90, see http://openbabel.sf.net
data_I
_chemical_name_common ''
_cell_length_a 8.578
_cell_length_b 13.866
_cell_length_c 21.033
_cell_angle_alpha 109.128
_cell_angle_beta 92.71
_cell_angle_gamma 89.975
_space_group_name_H-M_alt 'P 1'
_space_group_name_Hall 'P 1'
loop_
    _symmetry_equiv_pos_as_xyz
    x,y,z
loop_
    _atom_site_label
    _atom_site_type_symbol
    _atom_site_fract_x
    _atom_site_fract_y
    _atom_site_fract_z
    _atom_site_occupancy
    Mc0     Mc   0.39962   0.99884   0.68345   1.000
    Mc1     Mc   0.39977   0.18747   0.68326   1.000
    Mc2     Mc   0.36467   0.88488   0.26947   1.000
    Mc3     Mc   0.63565   0.11662   0.73058   1.000
    Mc4     Mc   0.60056   0.00273   0.31660   1.000
    Mc5     Mc   0.60060   0.81393   0.31669   1.000
    Ts6     Ts   0.50018   0.00049   0.50003   1.000
    Mc7     Mc   0.89954   0.49880   0.68343   1.000
    Mc8     Mc   0.10074   0.31400   0.31672   1.000
    Mc9     Mc   0.10064   0.50284   0.31667   1.000
    Mc10    Mc   0.89972   0.68747   0.68323   1.000
    Mc11    Mc   0.86476   0.38491   0.26947   1.000
    Mc12    Mc   0.13561   0.61661   0.73054   1.000
    Ts13    Ts   0.00012   0.50051   0.49998   1.000
    Mc14    Mc   0.89959   0.99884   0.68345   1.000
    Mc15    Mc   0.10062   0.81391   0.31669   1.000
    Mc16    Mc   0.86465   0.88489   0.26947   1.000
    Mc17    Mc   0.89977   0.18748   0.68320   1.000
    Mc18    Mc   0.10059   0.00272   0.31666   1.000
    Mc19    Mc   0.13571   0.11660   0.73057   1.000
    Ts20    Ts   0.00014   0.00048   0.50000   1.000
    Mc21    Mc   0.36449   0.88594   0.76950   1.000
    Mc22    Mc   0.39980   0.99789   0.18338   1.000
    Mc23    Mc   0.60031   0.00385   0.81670   1.000
    Mc24    Mc   0.63587   0.11567   0.23054   1.000
    Mc25    Mc   0.39990   0.18664   0.18329   1.000
    Mc26    Mc   0.60065   0.81503   0.81666   1.000
    Ts27    Ts   0.50010   0.00054   0.00000   1.000
    Mc28    Mc   0.10031   0.00387   0.81670   1.000
    Mc29    Mc   0.10065   0.81504   0.81667   1.000
    Mc30    Mc   0.86447   0.88594   0.76950   1.000
    Mc31    Mc   0.89978   0.99788   0.18338   1.000
    Mc32    Mc   0.89988   0.18663   0.18328   1.000
    Mc33    Mc   0.13587   0.11566   0.23055   1.000
    Ts34    Ts   0.00010   0.00053   0.99996   1.000
    Mc35    Mc   0.63585   0.61564   0.23052   1.000
    Mc36    Mc   0.60026   0.50392   0.81672   1.000
    Mc37    Mc   0.39987   0.68654   0.18326   1.000
    Mc38    Mc   0.60062   0.31507   0.81667   1.000
    Mc39    Mc   0.36445   0.38596   0.76951   1.000
    Mc40    Mc   0.39982   0.49777   0.18337   1.000
    Ts41    Ts   0.50012   0.50044   0.00000   1.000
    Mc42    Mc   0.13588   0.61563   0.23053   1.000
    Mc43    Mc   0.89980   0.49779   0.18338   1.000
    Mc44    Mc   0.89987   0.68656   0.18327   1.000
    Mc45    Mc   0.86444   0.38597   0.76952   1.000
    Mc46    Mc   0.10065   0.31508   0.81668   1.000
    Mc47    Mc   0.10028   0.50393   0.81673   1.000
    Ts48    Ts   0.00011   0.50047   0.00002   1.000
    Mc49    Mc   0.60062   0.50287   0.31667   1.000
    Mc50    Mc   0.60075   0.31402   0.31670   1.000
    Mc51    Mc   0.63561   0.61661   0.73054   1.000
    Mc52    Mc   0.36476   0.38492   0.26949   1.000
    Mc53    Mc   0.39955   0.49880   0.68344   1.000
    Mc54    Mc   0.39972   0.68747   0.68324   1.000
    Ts55    Ts   0.50014   0.50052   0.50001   1.000
