# CIF file generated by openbabel 2.4.90, see http://openbabel.sf.net
data_I
_chemical_name_common ''
_cell_length_a 8.578
_cell_length_b 13.866
_cell_length_c 21.033
_cell_angle_alpha 109.128
_cell_angle_beta 92.71
_cell_angle_gamma 89.975
_space_group_name_H-M_alt 'P 1'
_space_group_name_Hall 'P 1'
loop_
    _symmetry_equiv_pos_as_xyz
    x,y,z
loop_
    _atom_site_label
    _atom_site_type_symbol
    _atom_site_fract_x
    _atom_site_fract_y
    _atom_site_fract_z
    _atom_site_occupancy
    P0      P    0.49180   0.08891   0.17674   1.000
    P1      P    0.49168   0.08976   0.67674   1.000
    P2      P    0.49180   0.58882   0.17672   1.000
    P3      P    0.49160   0.58976   0.67673   1.000
    P4      P    0.99178   0.08890   0.17674   1.000
    P5      P    0.99165   0.08977   0.67675   1.000
    P6      P    0.99179   0.58884   0.17673   1.000
    P7      P    0.99159   0.58976   0.67671   1.000
    P8      P    0.00880   0.41171   0.32329   1.000
    P9      P    0.00854   0.41273   0.82331   1.000
    P10     P    0.00871   0.91164   0.32329   1.000
    P11     P    0.00856   0.91269   0.82300   1.000
    P12     P    0.50880   0.41173   0.32329   1.000
    P13     P    0.50851   0.41272   0.82331   1.000
    P14     P    0.50868   0.91165   0.32330   1.000
    P15     P    0.50855   0.91269   0.82330   1.000
    H16     H    0.15159   0.48405   0.09455   1.000
    H17     H    0.15184   0.48506   0.59471   1.000
    H18     H    0.15176   0.98432   0.09453   1.000
    H19     H    0.15191   0.98512   0.59470   1.000
    H20     H    0.65153   0.48400   0.09450   1.000
    H21     H    0.65182   0.48506   0.59473   1.000
    H22     H    0.65176   0.98436   0.09453   1.000
    H23     H    0.65196   0.98515   0.59478   1.000
    H24     H    0.38285   0.45476   0.03571   1.000
    H25     H    0.38315   0.45490   0.53589   1.000
    H26     H    0.38290   0.95487   0.03575   1.000
    H27     H    0.38323   0.95493   0.53595   1.000
    H28     H    0.88285   0.45476   0.03574   1.000
    H29     H    0.88311   0.45490   0.53588   1.000
    H30     H    0.88287   0.95488   0.03576   1.000
    H31     H    0.88315   0.95495   0.53595   1.000
    H32     H    0.34877   0.38942   0.40569   1.000
    H33     H    0.34839   0.39006   0.90553   1.000
    H34     H    0.34884   0.88928   0.40572   1.000
    H35     H    0.34845   0.89002   0.90554   1.000
    H36     H    0.84872   0.38939   0.40567   1.000
    H37     H    0.84835   0.39011   0.90554   1.000
    H38     H    0.84879   0.88928   0.40571   1.000
    H39     H    0.84844   0.89002   0.90553   1.000
    H40     H    0.11736   0.41897   0.46465   1.000
    H41     H    0.11699   0.41885   0.96444   1.000
    H42     H    0.11739   0.91896   0.46471   1.000
    H43     H    0.11698   0.91891   0.96447   1.000
    H44     H    0.61738   0.41899   0.46467   1.000
    H45     H    0.61699   0.41883   0.96442   1.000
    H46     H    0.61743   0.91897   0.46469   1.000
    H47     H    0.61702   0.91893   0.96447   1.000
    H48     H    0.34832   0.01596   0.40540   1.000
    H49     H    0.34844   0.01689   0.90558   1.000
    H50     H    0.34846   0.51614   0.40538   1.000
    H51     H    0.34846   0.51699   0.90562   1.000
    H52     H    0.84832   0.01596   0.40539   1.000
    H53     H    0.84840   0.01689   0.90500   1.000
    H54     H    0.84841   0.51611   0.40530   1.000
    H55     H    0.84850   0.51702   0.90563   1.000
    H56     H    0.11722   0.04593   0.46417   1.000
    H57     H    0.11746   0.04607   0.96433   1.000
    H58     H    0.11724   0.54600   0.46416   1.000
    H59     H    0.11749   0.54609   0.96438   1.000
    H60     H    0.61723   0.04596   0.46416   1.000
    H61     H    0.61744   0.04610   0.96432   1.000
    H62     H    0.61725   0.54602   0.46419   1.000
    H63     H    0.61747   0.54607   0.96435   1.000
    H64     H    0.15185   0.11106   0.09432   1.000
    H65     H    0.15160   0.11168   0.59400   1.000
    H66     H    0.15205   0.61081   0.09431   1.000
    H67     H    0.15155   0.61166   0.59417   1.000
    H68     H    0.65179   0.11109   0.09431   1.000
    H69     H    0.65161   0.11171   0.59422   1.000
    H70     H    0.65209   0.61075   0.09430   1.000
    H71     H    0.65154   0.61166   0.59419   1.000
    H72     H    0.38302   0.08197   0.03549   1.000
    H73     H    0.38281   0.08187   0.53533   1.000
    H74     H    0.38313   0.58195   0.03554   1.000
    H75     H    0.38273   0.58188   0.53530   1.000
    H76     H    0.88304   0.08198   0.03551   1.000
    H77     H    0.88275   0.08187   0.53532   1.000
    H78     H    0.88307   0.58194   0.03555   1.000
    H79     H    0.88271   0.58189   0.53529   1.000
    C80     C    0.07477   0.04791   0.09481   1.000
    C81     C    0.07470   0.04853   0.59483   1.000
    C82     C    0.07478   0.54776   0.09480   1.000
    C83     C    0.07465   0.54851   0.59479   1.000
    C84     C    0.57473   0.04794   0.09480   1.000
    C85     C    0.57473   0.04853   0.59483   1.000
    C86     C    0.57476   0.54772   0.09479   1.000
    C87     C    0.57464   0.54851   0.59482   1.000
    C88     C    0.45914   0.01728   0.03350   1.000
    C89     C    0.45917   0.01737   0.53352   1.000
    C90     C    0.45916   0.51720   0.03350   1.000
    C91     C    0.45911   0.51739   0.53350   1.000
    C92     C    0.95914   0.01729   0.03352   1.000
    C93     C    0.95912   0.01737   0.53352   1.000
    C94     C    0.95912   0.51721   0.03352   1.000
    C95     C    0.95908   0.51739   0.53348   1.000
    C96     C    0.42567   0.45265   0.40519   1.000
    C97     C    0.42547   0.45331   0.90522   1.000
    C98     C    0.42563   0.95256   0.40522   1.000
    C99     C    0.42549   0.95328   0.90521   1.000
    C100    C    0.92562   0.45263   0.40518   1.000
    C101    C    0.92548   0.45333   0.90523   1.000
    C102    C    0.92561   0.95254   0.40521   1.000
    C103    C    0.92547   0.95329   0.90520   1.000
    C104    C    0.04113   0.48355   0.46650   1.000
    C105    C    0.04107   0.48366   0.96653   1.000
    C106    C    0.04113   0.98352   0.46653   1.000
    C107    C    0.04104   0.98370   0.96651   1.000
    C108    C    0.54113   0.48356   0.46652   1.000
    C109    C    0.54107   0.48365   0.96651   1.000
    C110    C    0.54118   0.98354   0.46650   1.000
    C111    C    0.54107   0.98371   0.96650   1.000
    O112    O    0.39982   0.49777   0.18337   1.000
    O113    O    0.39955   0.49880   0.68344   1.000
    O114    O    0.39980   0.99789   0.18338   1.000
    O115    O    0.39962   0.99884   0.68345   1.000
    O116    O    0.89980   0.49779   0.18338   1.000
    O117    O    0.89954   0.49880   0.68343   1.000
    O118    O    0.89978   0.99788   0.18338   1.000
    O119    O    0.89959   0.99884   0.68345   1.000
    O120    O    0.10074   0.31400   0.31672   1.000
    O121    O    0.10065   0.31508   0.81668   1.000
    O122    O    0.10062   0.81391   0.31669   1.000
    O123    O    0.10065   0.81504   0.81667   1.000
    O124    O    0.60075   0.31402   0.31670   1.000
    O125    O    0.60062   0.31507   0.81667   1.000
    O126    O    0.60060   0.81393   0.31669   1.000
    O127    O    0.60065   0.81503   0.81666   1.000
    O128    O    0.10059   0.00272   0.31666   1.000
    O129    O    0.10031   0.00387   0.81670   1.000
    O130    O    0.10064   0.50284   0.31667   1.000
    O131    O    0.10028   0.50393   0.81673   1.000
    O132    O    0.60056   0.00273   0.31660   1.000
    O133    O    0.60031   0.00385   0.81670   1.000
    O134    O    0.60062   0.50287   0.31667   1.000
    O135    O    0.60026   0.50392   0.81672   1.000
    O136    O    0.39990   0.18664   0.18329   1.000
    O137    O    0.39977   0.18747   0.68326   1.000
    O138    O    0.39987   0.68654   0.18326   1.000
    O139    O    0.39972   0.68747   0.68324   1.000
    O140    O    0.89988   0.18663   0.18328   1.000
    O141    O    0.89977   0.18748   0.68320   1.000
    O142    O    0.89987   0.68656   0.18327   1.000
    O143    O    0.89972   0.68747   0.68323   1.000
    O144    O    0.13587   0.11566   0.23055   1.000
    O145    O    0.13571   0.11660   0.73057   1.000
    O146    O    0.13588   0.61563   0.23053   1.000
    O147    O    0.13561   0.61661   0.73054   1.000
    O148    O    0.63587   0.11567   0.23054   1.000
    O149    O    0.63565   0.11662   0.73058   1.000
    O150    O    0.63585   0.61564   0.23052   1.000
    O151    O    0.63561   0.61661   0.73054   1.000
    O152    O    0.36476   0.38492   0.26949   1.000
    O153    O    0.36445   0.38596   0.76951   1.000
    O154    O    0.36467   0.88488   0.26947   1.000
    O155    O    0.36449   0.88594   0.76950   1.000
    O156    O    0.86476   0.38491   0.26947   1.000
    O157    O    0.86444   0.38597   0.76952   1.000
    O158    O    0.86465   0.88489   0.26947   1.000
    O159    O    0.86447   0.88594   0.76950   1.000
loop_
    _geom_bond_atom_site_label_1
    _geom_bond_atom_site_label_2
    _geom_bond_distance
    _geom_bond_site_symmetry_2
    _ccdc_geom_bond_type
    C90    H74       1.10001      .   S
    C90    H24       1.09999      .   S
    C90    C86       1.53176      .   S
    C90    C109      1.53598  1_554   S
    C88    H72       1.10002      .   S
    C88    H26       1.09962  1_545   S
    C88    C84       1.53179      .   S
    C88    C111      1.53618  1_544   S
    C94    H78       1.10002      .   S
    C94    H28       1.10003      .   S
    C94    C82       1.53188  1_655   S
    C94    C105      1.53612  1_654   S
    C92    H76       1.10003      .   S
    C92    H30       1.09960  1_545   S
    C92    C80       1.53189  1_655   S
    C92    C107      1.53626  1_644   S
    H70    C86       1.10044      .   S
    H66    C82       1.10042      .   S
    H68    C84       1.10049      .   S
    H64    C80       1.10046      .   S
    H20    C86       1.10032      .   S
    H22    C84       1.10013  1_565   S
    H18    C80       1.10009  1_565   S
    H16    C82       1.10053      .   S
    C86    P2        1.80909      .   S
    C84    P0        1.80914      .   S
    C82    P6        1.80921  1_455   S
    C80    P4        1.80919  1_455   S
    P2     O138      1.53746      .   S
    P2     O112      1.53723      .   S
    P2     O150      1.59310      .   S
    P6     O142      1.53744      .   S
    P6     O116      1.53726      .   S
    P6     O146      1.59337  1_655   S
    P0     O136      1.53744      .   S
    P0     O114      1.53686  1_545   S
    P0     O148      1.59323      .   S
    P4     O140      1.53747      .   S
    P4     O118      1.53689  1_545   S
    P4     O144      1.59351  1_655   S
    O156   P8        1.59329  1_655   S
    O158   P10       1.59342  1_655   S
    O154   P14       1.59323      .   S
    O152   P12       1.59302      .   S
    O132   P14       1.53745  1_545   S
    O128   P10       1.53697  1_545   S
    O130   P8        1.53733      .   S
    O134   P12       1.53736      .   S
    O122   P10       1.53736      .   S
    O126   P14       1.53731      .   S
    O124   P12       1.53723      .   S
    O120   P8        1.53731      .   S
    P12    C96       1.80914      .   S
    P10    C102      1.80942  1_455   S
    P8     C100      1.80914  1_455   S
    P14    C98       1.80922      .   S
    C100   H54       1.10079      .   S
    C100   H36       1.10049      .   S
    C100   C104      1.53173  1_655   S
    C96    H50       1.10053      .   S
    C96    H32       1.10047      .   S
    C96    C108      1.53160      .   S
    C102   H52       1.10011  1_565   S
    C102   H38       1.10047      .   S
    C102   C106      1.53182  1_655   S
    C98    H48       1.10009  1_565   S
    C98    H34       1.10051      .   S
    C98    C110      1.53134      .   S
    H60    C110      1.09935  1_545   S
    H58    C104      1.09998      .   S
    H56    C106      1.09955  1_545   S
    H62    C108      1.09998      .   S
    H40    C104      1.10003      .   S
    H44    C108      1.10003      .   S
    H46    C110      1.10017      .   S
    H42    C106      1.10005      .   S
    C110   C89       1.53693  1_565   S
    C104   C95       1.53640  1_455   S
    C108   C91       1.53624      .   S
    C106   C93       1.53643  1_465   S
    C95    H79       1.10000      .   S
    C95    H29       1.10003      .   S
    C95    C83       1.53188  1_655   S
    C91    H75       1.10001      .   S
    C91    H25       1.10005      .   S
    C91    C87       1.53180      .   S
    C93    H77       1.09998      .   S
    C93    H31       1.09964  1_545   S
    C93    C81       1.53198  1_655   S
    C89    H73       1.09999      .   S
    C89    H27       1.09961  1_545   S
    C89    C85       1.53188      .   S
    H65    C81       1.10170      .   S
    H67    C83       1.10042      .   S
    H71    C87       1.10045      .   S
    H69    C85       1.10047      .   S
    H19    C81       1.09986  1_565   S
    H17    C83       1.10055      .   S
    H21    C87       1.10051      .   S
    H23    C85       1.10013  1_565   S
    C83    P7        1.80923  1_455   S
    C87    P3        1.80901      .   S
    C85    P1        1.80905      .   S
    C81    P5        1.80924  1_455   S
    P7     O143      1.53726      .   S
    P7     O117      1.53697      .   S
    P7     O147      1.59328  1_655   S
    P3     O139      1.53727      .   S
    P3     O113      1.53697      .   S
    P3     O151      1.59300      .   S
    P1     O137      1.53729      .   S
    P1     O115      1.53656  1_545   S
    P1     O149      1.59307      .   S
    P5     O141      1.53751      .   S
    P5     O119      1.53650  1_545   S
    P5     O145      1.59339  1_655   S
    O159   P11       1.58960  1_655   S
    O155   P15       1.59318      .   S
    O153   P13       1.59317      .   S
    O157   P9        1.59326  1_655   S
    O127   P15       1.53712      .   S
    O123   P11       1.53823      .   S
    O125   P13       1.53714      .   S
    O121   P9        1.53718      .   S
    O133   P15       1.53719  1_545   S
    O129   P11       1.53485  1_545   S
    O135   P13       1.53742      .   S
    O131   P9        1.53737      .   S
    P11    C103      1.81450  1_455   S
    P15    C99       1.80908      .   S
    P9     C101      1.80923  1_455   S
    P13    C97       1.80899      .   S
    H53    C103      1.10298  1_545   S
    C103   H39       1.10051      .   S
    C103   C107      1.53187  1_655   S
    C99    H35       1.10052      .   S
    C99    H49       1.10010  1_565   S
    C99    C111      1.53161      .   S
    C97    H33       1.10051      .   S
    C97    H51       1.10050      .   S
    C97    C109      1.53174      .   S
    C101   H37       1.10049      .   S
    C101   H55       1.10049      .   S
    C101   C105      1.53183  1_655   S
    H61    C111      1.09956  1_545   S
    H57    C107      1.09958  1_545   S
    H63    C109      1.09997      .   S
    H59    C105      1.09995      .   S
    H45    C109      1.10002      .   S
    H41    C105      1.10002      .   S
    H43    C107      1.10006      .   S
    H47    C111      1.10006      .   S
