# CIF file generated by openbabel 2.4.90, see http://openbabel.sf.net
data_I
_chemical_name_common ''
_cell_length_a 8.578
_cell_length_b 13.866
_cell_length_c 21.033
_cell_angle_alpha 109.128
_cell_angle_beta 92.71
_cell_angle_gamma 89.975
_space_group_name_H-M_alt 'P 1'
_space_group_name_Hall 'P 1'
loop_
    _symmetry_equiv_pos_as_xyz
    x,y,z
loop_
    _atom_site_label
    _atom_site_type_symbol
    _atom_site_fract_x
    _atom_site_fract_y
    _atom_site_fract_z
    _atom_site_occupancy
    Cu0     Cu   0.25007   0.00132   0.75011   1.000
    Cu1     Cu   0.25038   0.50032   0.25005   1.000
    Cu2     Cu   0.24999   0.50135   0.75009   1.000
    Cu3     Cu   0.75027   0.00030   0.25004   1.000
    Cu4     Cu   0.75006   0.00133   0.75011   1.000
    Cu5     Cu   0.75035   0.50033   0.25005   1.000
    Cu6     Cu   0.74999   0.50135   0.75009   1.000
    Cu7     Cu   0.25047   0.25029   0.25004   1.000
    Cu8     Cu   0.25026   0.25121   0.74999   1.000
    Cu9     Cu   0.25037   0.75023   0.25001   1.000
    Cu10    Cu   0.25021   0.75119   0.74997   1.000
    Cu11    Cu   0.75045   0.25029   0.25004   1.000
    Cu12    Cu   0.75024   0.25121   0.74999   1.000
    Cu13    Cu   0.75033   0.75024   0.25001   1.000
    Cu14    Cu   0.75023   0.75119   0.74997   1.000
    Cu15    Cu   0.25032   0.00030   0.25005   1.000
