# CIF file generated by openbabel 2.4.90, see http://openbabel.sf.net
data_I
_chemical_name_common ''
_cell_length_a 8.578
_cell_length_b 13.866
_cell_length_c 21.033
_cell_angle_alpha 109.128
_cell_angle_beta 92.71
_cell_angle_gamma 89.975
_space_group_name_H-M_alt 'P 1'
_space_group_name_Hall 'P 1'
loop_
    _symmetry_equiv_pos_as_xyz
    x,y,z
loop_
    _atom_site_label
    _atom_site_type_symbol
    _atom_site_fract_x
    _atom_site_fract_y
    _atom_site_fract_z
    _atom_site_occupancy
    N0      N    0.50868   0.91165   0.32330   1.000
    N1      N    0.49168   0.08976   0.67674   1.000
    O2      O    0.50631   0.03997   0.57814   1.000
    N3      N    0.00880   0.41171   0.32329   1.000
    N4      N    0.99159   0.58976   0.67671   1.000
    O5      O    0.99406   0.46122   0.42187   1.000
    N6      N    0.00871   0.91164   0.32329   1.000
    N7      N    0.99165   0.08977   0.67675   1.000
    O8      O    0.00628   0.03997   0.57814   1.000
    N9      N    0.50855   0.91269   0.82330   1.000
    N10     N    0.49180   0.08891   0.17674   1.000
    O11     O    0.50632   0.03960   0.07813   1.000
    N12     N    0.00856   0.91269   0.82300   1.000
    N13     N    0.99178   0.08890   0.17674   1.000
    O14     O    0.99394   0.96168   0.92175   1.000
    N15     N    0.49180   0.58882   0.17672   1.000
    N16     N    0.50851   0.41272   0.82331   1.000
    O17     O    0.49393   0.46166   0.92189   1.000
    N18     N    0.99179   0.58884   0.17673   1.000
    N19     N    0.00854   0.41273   0.82331   1.000
    O20     O    0.99394   0.46167   0.92190   1.000
    N21     N    0.49160   0.58976   0.67673   1.000
    N22     N    0.50880   0.41173   0.32329   1.000
    O23     O    0.50625   0.53998   0.57813   1.000
    Zr24    Zr   0.75024   0.25121   0.74999   1.000
    O25     O    0.79307   0.30175   0.75731   1.000
    O26     O    0.69413   0.27516   0.77499   1.000
    O27     O    0.70727   0.20074   0.74271   1.000
    O28     O    0.80631   0.22731   0.72494   1.000
    Zr29    Zr   0.25032   0.00030   0.25005   1.000
    O30     O    0.30637   0.99940   0.22505   1.000
    O31     O    0.20740   0.04356   0.24274   1.000
    O32     O    0.19417   0.00121   0.27503   1.000
    O33     O    0.29320   0.95702   0.25733   1.000
    Zr34    Zr   0.25047   0.25029   0.25004   1.000
    O35     O    0.20749   0.19980   0.24273   1.000
    O36     O    0.19432   0.27418   0.27504   1.000
    O37     O    0.30650   0.22642   0.22501   1.000
    O38     O    0.29333   0.30077   0.25733   1.000
    Zr39    Zr   0.25037   0.75023   0.25001   1.000
    O40     O    0.29323   0.80073   0.25731   1.000
    O41     O    0.20743   0.69976   0.24270   1.000
    O42     O    0.19421   0.77411   0.27501   1.000
    O43     O    0.30643   0.72635   0.22498   1.000
    Zr44    Zr   0.25007   0.00132   0.75011   1.000
    O45     O    0.29298   0.95805   0.75738   1.000
    O46     O    0.19391   0.00228   0.77508   1.000
    O47     O    0.30615   0.00039   0.72511   1.000
    O48     O    0.20719   0.04455   0.74278   1.000
    Zr49    Zr   0.75023   0.75119   0.74997   1.000
    O50     O    0.70725   0.70072   0.74268   1.000
    O51     O    0.80629   0.72729   0.72494   1.000
    O52     O    0.69414   0.77513   0.77498   1.000
    O53     O    0.79307   0.80172   0.75729   1.000
    Zr54    Zr   0.75027   0.00030   0.25004   1.000
    O55     O    0.69413   0.00121   0.27500   1.000
    O56     O    0.70737   0.04356   0.24273   1.000
    O57     O    0.80634   0.99939   0.22504   1.000
    O58     O    0.79317   0.95702   0.25733   1.000
    Zr59    Zr   0.75045   0.25029   0.25004   1.000
    O60     O    0.80648   0.22642   0.22500   1.000
    O61     O    0.79331   0.30077   0.25733   1.000
    O62     O    0.70748   0.19981   0.24273   1.000
    O63     O    0.69431   0.27419   0.27504   1.000
    Zr64    Zr   0.25021   0.75119   0.74997   1.000
    O65     O    0.29306   0.80172   0.75729   1.000
    O66     O    0.20723   0.70072   0.74268   1.000
    O67     O    0.30627   0.72730   0.72495   1.000
    O68     O    0.19412   0.77514   0.77498   1.000
    Zr69    Zr   0.74999   0.50135   0.75009   1.000
    O70     O    0.70710   0.54457   0.74276   1.000
    O71     O    0.69384   0.50231   0.77508   1.000
    O72     O    0.79291   0.45808   0.75738   1.000
    O73     O    0.80607   0.50039   0.72509   1.000
    Zr74    Zr   0.24999   0.50135   0.75009   1.000
    O75     O    0.29291   0.45808   0.75737   1.000
    O76     O    0.30608   0.50039   0.72510   1.000
    O77     O    0.19385   0.50232   0.77508   1.000
    O78     O    0.20710   0.54457   0.74276   1.000
    Zr79    Zr   0.75035   0.50033   0.25005   1.000
    O80     O    0.80639   0.49937   0.22505   1.000
    O81     O    0.79325   0.45705   0.25733   1.000
    O82     O    0.70741   0.54357   0.24273   1.000
    O83     O    0.69420   0.50128   0.27503   1.000
    Zr84    Zr   0.25038   0.50032   0.25005   1.000
    O85     O    0.29327   0.45704   0.25734   1.000
    O86     O    0.19423   0.50126   0.27503   1.000
    O87     O    0.20744   0.54356   0.24273   1.000
    O88     O    0.30642   0.49936   0.22504   1.000
    Zr89    Zr   0.25026   0.25121   0.74999   1.000
    O90     O    0.29308   0.30174   0.75731   1.000
    O91     O    0.30632   0.22730   0.72497   1.000
    O92     O    0.20730   0.20073   0.74271   1.000
    O93     O    0.19415   0.27516   0.77500   1.000
    Zr94    Zr   0.75033   0.75024   0.25001   1.000
    O95     O    0.79320   0.80073   0.25731   1.000
    O96     O    0.70740   0.69976   0.24270   1.000
    O97     O    0.69418   0.77412   0.27501   1.000
    O98     O    0.80641   0.72636   0.22498   1.000
    Zr99    Zr   0.75006   0.00133   0.75011   1.000
    O100    O    0.79296   0.95806   0.75738   1.000
    O101    O    0.70715   0.04456   0.74279   1.000
    O102    O    0.80613   0.00040   0.72511   1.000
    O103    O    0.69390   0.00227   0.77508   1.000
loop_
    _geom_bond_atom_site_label_1
    _geom_bond_atom_site_label_2
    _geom_bond_distance
    _geom_bond_site_symmetry_2
    _ccdc_geom_bond_type
    N0     O2        5.06531  1_565   S
    N1     O2        1.96955      .   S
    N4     O5        5.06524      .   S
    N3     O5        1.96937  1_455   S
    N6     O8        5.06538  1_565   S
    N7     O8        1.96990  1_655   S
    N9     O11       5.06486  1_566   S
    N10    O11       1.96975      .   S
    N13    O14       5.06799  1_544   S
    N12    O14       1.97264  1_455   S
    N15    O17       5.06479  1_554   S
    N16    O17       1.96923      .   S
    N18    O20       5.06480  1_554   S
    N19    O20       1.96946  1_455   S
    N22    O23       5.06529      .   S
    N21    O23       1.96967      .   S
    Zr24   O25       0.75752      .   S
    N19    O25       2.46397  1_455   S
    Zr24   O26       0.72654      .   S
    N16    O26       2.46710      .   S
    Zr24   O27       0.75748      .   S
    N1     O27       2.46446      .   S
    Zr24   O28       0.72670      .   S
    N7     O28       2.46476      .   S
    Zr29   O30       0.72629  1_545   S
    N10    O30       2.46661  1_545   S
    Zr29   O31       0.75759      .   S
    N13    O31       2.46402  1_655   S
    Zr29   O32       0.72644      .   S
    N6     O32       2.46660  1_565   S
    Zr29   O33       0.75738  1_545   S
    N0     O33       2.46288      .   S
    Zr34   O35       0.75755      .   S
    N13    O35       2.46495  1_655   S
    Zr34   O36       0.72661      .   S
    N3     O36       2.46593      .   S
    Zr34   O37       0.72619      .   S
    N10    O37       2.46449      .   S
    Zr34   O38       0.75716      .   S
    N22    O38       2.46351      .   S
    Zr39   O40       0.75725      .   S
    N0     O40       2.46348      .   S
    Zr39   O41       0.75729      .   S
    N18    O41       2.46454  1_655   S
    Zr39   O42       0.72660      .   S
    N6     O42       2.46592      .   S
    Zr39   O43       0.72641      .   S
    N15    O43       2.46505      .   S
    Zr44   O45       0.75721  1_545   S
    N9     O45       2.46281      .   S
    Zr44   O46       0.72628      .   S
    N12    O46       2.46178  1_565   S
    Zr44   O47       0.72629      .   S
    N1     O47       2.46675      .   S
    Zr44   O48       0.75725      .   S
    N7     O48       2.46317  1_655   S
    Zr49   O50       0.75745      .   S
    N21    O50       2.46466      .   S
    Zr49   O51       0.72635      .   S
    N4     O51       2.46470      .   S
    Zr49   O52       0.72648      .   S
    N9     O52       2.46687      .   S
    Zr49   O53       0.75753      .   S
    N12    O53       2.46205  1_455   S
    Zr54   O55       0.72613      .   S
    N0     O55       2.46695  1_565   S
    Zr54   O56       0.75757      .   S
    N10    O56       2.46367      .   S
    Zr54   O57       0.72627  1_545   S
    N13    O57       2.46657  1_545   S
    Zr54   O58       0.75744  1_545   S
    N6     O58       2.46331  1_455   S
    Zr59   O60       0.72627      .   S
    N13    O60       2.46456      .   S
    Zr59   O61       0.75717      .   S
    N3     O61       2.46355  1_455   S
    Zr59   O62       0.75750      .   S
    N10    O62       2.46468      .   S
    Zr59   O63       0.72646      .   S
    N22    O63       2.46596      .   S
    Zr64   O65       0.75759      .   S
    N9     O65       2.46402      .   S
    Zr64   O66       0.75742      .   S
    N4     O66       2.46477  1_655   S
    Zr64   O67       0.72639      .   S
    N21    O67       2.46472      .   S
    Zr64   O68       0.72646      .   S
    N12    O68       2.46552      .   S
    Zr69   O70       0.75720      .   S
    N21    O70       2.46275      .   S
    Zr69   O71       0.72643      .   S
    N16    O71       2.46578      .   S
    Zr69   O72       0.75741      .   S
    N19    O72       2.46326  1_455   S
    Zr69   O73       0.72620      .   S
    N4     O73       2.46671      .   S
    Zr74   O75       0.75743      .   S
    N16    O75       2.46315      .   S
    Zr74   O76       0.72617      .   S
    N21    O76       2.46658      .   S
    Zr74   O77       0.72642      .   S
    N19    O77       2.46559      .   S
    Zr74   O78       0.75720      .   S
    N4     O78       2.46299  1_655   S
    Zr79   O80       0.72606      .   S
    N18    O80       2.46608      .   S
    Zr79   O81       0.75747      .   S
    N3     O81       2.46297  1_455   S
    Zr79   O82       0.75754      .   S
    N15    O82       2.46355      .   S
    Zr79   O83       0.72639      .   S
    N22    O83       2.46614      .   S
    Zr84   O85       0.75744      .   S
    N22    O85       2.46265      .   S
    Zr84   O86       0.72642      .   S
    N3     O86       2.46629      .   S
    Zr84   O87       0.75753      .   S
    N18    O87       2.46386  1_655   S
    Zr84   O88       0.72610      .   S
    N15    O88       2.46607      .   S
    Zr89   O90       0.75748      .   S
    N16    O90       2.46374      .   S
    Zr89   O91       0.72640      .   S
    N1     O91       2.46501      .   S
    Zr89   O92       0.75746      .   S
    N7     O92       2.46468  1_655   S
    Zr89   O93       0.72657      .   S
    N19    O93       2.46710      .   S
    Zr94   O95       0.75726      .   S
    N6     O95       2.46367  1_455   S
    Zr94   O96       0.75728      .   S
    N15    O96       2.46442      .   S
    Zr94   O97       0.72658      .   S
    N0     O97       2.46600      .   S
    Zr94   O98       0.72643      .   S
    N18    O98       2.46504      .   S
    Zr99   O100      0.75725  1_545   S
    N12    O100      2.45912  1_455   S
    Zr99   O101      0.75731      .   S
    N1     O101      2.46285      .   S
    Zr99   O102      0.72624      .   S
    N7     O102      2.46656      .   S
    Zr99   O103      0.72628      .   S
    N9     O103      2.46566  1_565   S
