# CIF file generated by openbabel 2.4.90, see http://openbabel.sf.net
data_I
_chemical_name_common ''
_cell_length_a 18.538
_cell_length_b 16.297
_cell_length_c 16.338
_cell_angle_alpha 63.269
_cell_angle_beta 79.284
_cell_angle_gamma 100.929
_space_group_name_H-M_alt 'P 1'
_space_group_name_Hall 'P 1'
loop_
    _symmetry_equiv_pos_as_xyz
    x,y,z
loop_
    _atom_site_label
    _atom_site_type_symbol
    _atom_site_fract_x
    _atom_site_fract_y
    _atom_site_fract_z
    _atom_site_occupancy
    Lv0     Lv   0.86670   0.58076   0.53329   1.000
    Lv1     Lv   0.13363   0.53339   0.88493   1.000
    Lv2     Lv   0.57634   0.88516   0.58128   1.000
    Lv3     Lv   0.36640   0.46660   0.11500   1.000
    Lv4     Lv   0.13333   0.41925   0.46667   1.000
    Lv5     Lv   0.07635   0.88516   0.58128   1.000
    Lv6     Lv   0.63364   0.53339   0.88494   1.000
    Lv7     Lv   0.86641   0.46661   0.11498   1.000
    Lv8     Lv   0.42368   0.11483   0.41867   1.000
    Lv9     Lv   0.63333   0.41925   0.46665   1.000
    Lv10    Lv   0.36670   0.58077   0.53329   1.000
    Lv11    Lv   0.92368   0.11482   0.41866   1.000
