# CIF file generated by openbabel 2.4.90, see http://openbabel.sf.net
data_I
_chemical_name_common ''
_cell_length_a 18.538
_cell_length_b 16.297
_cell_length_c 16.338
_cell_angle_alpha 63.269
_cell_angle_beta 79.284
_cell_angle_gamma 100.929
_space_group_name_H-M_alt 'P 1'
_space_group_name_Hall 'P 1'
loop_
    _symmetry_equiv_pos_as_xyz
    x,y,z
loop_
    _atom_site_label
    _atom_site_type_symbol
    _atom_site_fract_x
    _atom_site_fract_y
    _atom_site_fract_z
    _atom_site_occupancy
    H0      H    0.04421   0.97720   0.34636   1.000
    H1      H    0.54420   0.97719   0.34636   1.000
    H2      H    0.12543   0.09950   0.17371   1.000
    H3      H    0.62542   0.09949   0.17371   1.000
    H4      H    0.26606   0.17909   0.14156   1.000
    H5      H    0.76605   0.17908   0.14155   1.000
    H6      H    0.31982   0.13380   0.27966   1.000
    H7      H    0.81981   0.13379   0.27964   1.000
    H8      H    0.39284   0.72577   0.64112   1.000
    H9      H    0.89287   0.72573   0.64113   1.000
    H10     H    0.28639   0.59527   0.78492   1.000
    H11     H    0.78642   0.59524   0.78493   1.000
    H12     H    0.38609   0.65335   0.96853   1.000
    H13     H    0.88609   0.65338   0.96854   1.000
    H14     H    0.49946   0.78110   0.83169   1.000
    H15     H    0.99946   0.78113   0.83169   1.000
    H16     H    0.21820   0.34439   0.67750   1.000
    H17     H    0.71821   0.34437   0.67751   1.000
    H18     H    0.21404   0.17159   0.72804   1.000
    H19     H    0.71405   0.17158   0.72803   1.000
    H20     H    0.33874   0.14027   0.68029   1.000
    H21     H    0.83875   0.14027   0.68026   1.000
    H22     H    0.46085   0.27928   0.58713   1.000
    H23     H    0.96085   0.27929   0.58710   1.000
    H24     H    0.21345   0.64009   0.63327   1.000
    H25     H    0.71346   0.64008   0.63329   1.000
    H26     H    0.17914   0.78412   0.62031   1.000
    H27     H    0.67913   0.78411   0.62031   1.000
    H28     H    0.36933   0.96909   0.37751   1.000
    H29     H    0.86931   0.96908   0.37750   1.000
    H30     H    0.41394   0.83204   0.38610   1.000
    H31     H    0.91393   0.83203   0.38610   1.000
    H32     H    0.05542   0.67611   0.97650   1.000
    H33     H    0.55543   0.67612   0.97650   1.000
    H34     H    0.07568   0.72637   0.09856   1.000
    H35     H    0.57570   0.72639   0.09850   1.000
    H36     H    0.17720   0.67980   0.17761   1.000
    H37     H    0.67722   0.67983   0.17759   1.000
    H38     H    0.25391   0.58764   0.13226   1.000
    H39     H    0.75392   0.58765   0.13225   1.000
    H40     H    0.02991   0.63331   0.72513   1.000
    H41     H    0.52986   0.63325   0.72519   1.000
    H42     H    0.48883   0.62022   0.59458   1.000
    H43     H    0.98889   0.62027   0.59452   1.000
    H44     H    0.05901   0.37741   0.65373   1.000
    H45     H    0.55909   0.37746   0.65368   1.000
    H46     H    0.10820   0.38613   0.78170   1.000
    H47     H    0.60829   0.38619   0.78170   1.000
    H48     H    0.45582   0.02277   0.65360   1.000
    H49     H    0.95581   0.02277   0.65359   1.000
    H50     H    0.37459   0.90048   0.82625   1.000
    H51     H    0.87459   0.90049   0.82620   1.000
    H52     H    0.23396   0.82091   0.85841   1.000
    H53     H    0.73396   0.82092   0.85840   1.000
    H54     H    0.18020   0.86621   0.72030   1.000
    H55     H    0.68019   0.86622   0.72030   1.000
    H56     H    0.10717   0.27418   0.35883   1.000
    H57     H    0.60719   0.27419   0.35884   1.000
    H58     H    0.21362   0.40468   0.21504   1.000
    H59     H    0.71364   0.40469   0.21504   1.000
    H60     H    0.11393   0.34662   0.03141   1.000
    H61     H    0.61393   0.34663   0.03143   1.000
    H62     H    0.00056   0.21888   0.16825   1.000
    H63     H    0.50056   0.21888   0.16827   1.000
    H64     H    0.28183   0.65562   0.32248   1.000
    H65     H    0.78183   0.65563   0.32245   1.000
    H66     H    0.28599   0.82842   0.27193   1.000
    H67     H    0.78599   0.82842   0.27191   1.000
    H68     H    0.16129   0.85975   0.31964   1.000
    H69     H    0.66129   0.85974   0.31966   1.000
    H70     H    0.03918   0.72073   0.41279   1.000
    H71     H    0.53918   0.72072   0.41282   1.000
    H72     H    0.28658   0.35992   0.36670   1.000
    H73     H    0.78659   0.35992   0.36669   1.000
    H74     H    0.32090   0.21589   0.37966   1.000
    H75     H    0.82090   0.21589   0.37965   1.000
    H76     H    0.13069   0.03092   0.62244   1.000
    H77     H    0.63069   0.03092   0.62242   1.000
    H78     H    0.08608   0.16797   0.61385   1.000
    H79     H    0.58608   0.16798   0.61380   1.000
    H80     H    0.44465   0.32393   0.02340   1.000
    H81     H    0.94464   0.32391   0.02342   1.000
    H82     H    0.42437   0.27366   0.90135   1.000
    H83     H    0.92435   0.27360   0.90141   1.000
    H84     H    0.32282   0.32017   0.82235   1.000
    H85     H    0.82279   0.32011   0.82241   1.000
    H86     H    0.24610   0.41231   0.86772   1.000
    H87     H    0.74608   0.41228   0.86775   1.000
    H88     H    0.47018   0.36675   0.27470   1.000
    H89     H    0.97022   0.36679   0.27472   1.000
    H90     H    0.01124   0.37982   0.40530   1.000
    H91     H    0.51120   0.37979   0.40537   1.000
    H92     H    0.44094   0.62255   0.34626   1.000
    H93     H    0.94093   0.62254   0.34627   1.000
    C94     C    0.15974   0.60072   0.39197   1.000
    H95     H    0.39175   0.61382   0.21823   1.000
    H96     H    0.89174   0.61381   0.21824   1.000
    C97     C    0.13957   0.99227   0.40034   1.000
    C98     C    0.63956   0.99227   0.40033   1.000
    C99     C    0.10566   0.01312   0.32682   1.000
    C100    C    0.60564   0.01311   0.32681   1.000
    C101    C    0.15075   0.08060   0.23228   1.000
    C102    C    0.65073   0.08059   0.23227   1.000
    C103    C    0.22870   0.12500   0.21417   1.000
    C104    C    0.72869   0.12499   0.21416   1.000
    C105    C    0.25927   0.10082   0.29061   1.000
    C106    C    0.75926   0.10081   0.29060   1.000
    C107    C    0.45654   0.76412   0.72381   1.000
    C108    C    0.95656   0.76411   0.72382   1.000
    C109    C    0.39359   0.71142   0.71271   1.000
    C110    C    0.89361   0.71140   0.71271   1.000
    C111    C    0.33368   0.63878   0.79306   1.000
    C112    C    0.83370   0.63876   0.79307   1.000
    C113    C    0.38977   0.67064   0.89510   1.000
    C114    C    0.88977   0.67065   0.89511   1.000
    C115    C    0.45256   0.74241   0.81843   1.000
    C116    C    0.95256   0.74242   0.81843   1.000
    C117    C    0.34029   0.39930   0.60799   1.000
    C118    C    0.84029   0.39929   0.60800   1.000
    C119    C    0.27001   0.32522   0.66100   1.000
    C120    C    0.77002   0.32521   0.66100   1.000
    C121    C    0.26833   0.23058   0.68820   1.000
    C122    C    0.76834   0.23057   0.68819   1.000
    C123    C    0.33731   0.21291   0.66174   1.000
    C124    C    0.83732   0.21292   0.66172   1.000
    C125    C    0.40570   0.28986   0.60925   1.000
    C126    C    0.90570   0.28986   0.60922   1.000
    C127    C    0.31785   0.72342   0.51170   1.000
    C128    C    0.81784   0.72341   0.51171   1.000
    C129    C    0.24975   0.71203   0.57587   1.000
    C130    C    0.74974   0.71203   0.57588   1.000
    C131    C    0.23016   0.79251   0.56838   1.000
    C132    C    0.73016   0.79251   0.56838   1.000
    C133    C    0.33653   0.89530   0.43383   1.000
    C134    C    0.83652   0.89529   0.43382   1.000
    C135    C    0.36080   0.81851   0.43840   1.000
    C136    C    0.86079   0.81849   0.43847   1.000
    C137    C    0.14369   0.60777   0.99132   1.000
    C138    C    0.64369   0.60776   0.99133   1.000
    C139    C    0.09919   0.66010   0.01218   1.000
    C140    C    0.59920   0.66012   0.01217   1.000
    C141    C    0.11067   0.68717   0.07949   1.000
    C142    C    0.61069   0.68718   0.07948   1.000
    C143    C    0.16679   0.66131   0.12362   1.000
    C144    C    0.66681   0.66134   0.12360   1.000
    C145    C    0.20962   0.60943   0.09941   1.000
    C146    C    0.70964   0.60945   0.09940   1.000
    C147    C    0.07416   0.51168   0.76409   1.000
    C148    C    0.57417   0.51168   0.76409   1.000
    C149    C    0.03774   0.57587   0.71101   1.000
    C150    C    0.53772   0.57584   0.71104   1.000
    C151    C    0.01429   0.56834   0.63827   1.000
    C152    C    0.51427   0.56831   0.63831   1.000
    C153    C    0.05411   0.43374   0.67082   1.000
    C154    C    0.55416   0.43376   0.67079   1.000
    C155    C    0.08086   0.43845   0.74273   1.000
    C156    C    0.58091   0.43848   0.74270   1.000
    C157    C    0.36046   0.00771   0.59962   1.000
    C158    C    0.86046   0.00771   0.59961   1.000
    C159    C    0.39437   0.98686   0.67314   1.000
    C160    C    0.89437   0.98686   0.67313   1.000
    C161    C    0.34928   0.91939   0.76768   1.000
    C162    C    0.84928   0.91940   0.76767   1.000
    C163    C    0.27132   0.87500   0.78579   1.000
    C164    C    0.77132   0.87501   0.78578   1.000
    C165    C    0.24075   0.89918   0.70930   1.000
    C166    C    0.74075   0.89919   0.70934   1.000
    C167    C    0.04347   0.23585   0.27613   1.000
    C168    C    0.54348   0.23586   0.27614   1.000
    C169    C    0.10643   0.28854   0.28720   1.000
    C170    C    0.60645   0.28854   0.28725   1.000
    C171    C    0.16634   0.36118   0.20690   1.000
    C172    C    0.66635   0.36119   0.20690   1.000
    C173    C    0.11025   0.32933   0.10484   1.000
    C174    C    0.61025   0.32934   0.10480   1.000
    C175    C    0.04746   0.25756   0.18151   1.000
    C176    C    0.54746   0.25757   0.18153   1.000
    C177    C    0.65975   0.60072   0.39195   1.000
    C178    C    0.23002   0.67479   0.33897   1.000
    C179    C    0.73002   0.67479   0.33895   1.000
    C180    C    0.23170   0.76943   0.31176   1.000
    C181    C    0.73170   0.76943   0.31175   1.000
    C182    C    0.16271   0.78710   0.33820   1.000
    C183    C    0.66272   0.78710   0.33821   1.000
    C184    C    0.09433   0.71015   0.39068   1.000
    C185    C    0.59433   0.71015   0.39070   1.000
    C186    C    0.18218   0.27659   0.48826   1.000
    C187    C    0.68219   0.27659   0.48824   1.000
    C188    C    0.25029   0.28797   0.42409   1.000
    C189    C    0.75029   0.28797   0.42408   1.000
    C190    C    0.26987   0.20749   0.43159   1.000
    C191    C    0.76987   0.20749   0.43158   1.000
    C192    C    0.16350   0.10470   0.56613   1.000
    C193    C    0.66349   0.10470   0.56611   1.000
    C194    C    0.13923   0.18150   0.56148   1.000
    C195    C    0.63923   0.18151   0.56146   1.000
    C196    C    0.35635   0.39224   0.00861   1.000
    C197    C    0.85635   0.39223   0.00862   1.000
    C198    C    0.40086   0.33992   0.98774   1.000
    C199    C    0.90085   0.33989   0.98777   1.000
    C200    C    0.38937   0.31284   0.92044   1.000
    C201    C    0.88935   0.31280   0.92048   1.000
    C202    C    0.33323   0.33867   0.87633   1.000
    C203    C    0.83321   0.33862   0.87638   1.000
    C204    C    0.29039   0.39054   0.90056   1.000
    C205    C    0.79038   0.39051   0.90059   1.000
    C206    C    0.42588   0.48832   0.23585   1.000
    C207    C    0.92589   0.48834   0.23583   1.000
    C208    C    0.46232   0.42417   0.28890   1.000
    C209    C    0.96235   0.42419   0.28888   1.000
    C210    C    0.48577   0.43170   0.36160   1.000
    C211    C    0.98580   0.43173   0.36161   1.000
    C212    C    0.44588   0.56624   0.32914   1.000
    C213    C    0.94588   0.56625   0.32910   1.000
    C214    C    0.41913   0.56153   0.25720   1.000
    C215    C    0.91913   0.56153   0.25724   1.000
    N216    N    0.21628   0.03554   0.38293   1.000
    N217    N    0.71627   0.03554   0.38292   1.000
    N218    N    0.33074   0.61611   0.88480   1.000
    N219    N    0.83075   0.61611   0.88480   1.000
    N220    N    0.40837   0.38229   0.58201   1.000
    N221    N    0.90838   0.38229   0.58200   1.000
    N222    N    0.27286   0.88471   0.49910   1.000
    N223    N    0.77285   0.88470   0.49910   1.000
    N224    N    0.19903   0.58222   0.03443   1.000
    N225    N    0.69904   0.58222   0.03440   1.000
    N226    N    0.02262   0.49901   0.61588   1.000
    N227    N    0.52264   0.49901   0.61588   1.000
    N228    N    0.28374   0.96445   0.61703   1.000
    N229    N    0.78374   0.96445   0.61702   1.000
    N230    N    0.16928   0.38386   0.11513   1.000
    N231    N    0.66929   0.38387   0.11513   1.000
    N232    N    0.09165   0.61772   0.41793   1.000
    N233    N    0.59166   0.61772   0.41793   1.000
    N234    N    0.22717   0.11529   0.50085   1.000
    N235    N    0.72717   0.11529   0.50084   1.000
    N236    N    0.30099   0.41776   0.96553   1.000
    N237    N    0.80099   0.41775   0.96553   1.000
    N238    N    0.47740   0.50099   0.38406   1.000
    N239    N    0.97740   0.50100   0.38400   1.000
loop_
    _geom_bond_atom_site_label_1
    _geom_bond_atom_site_label_2
    _geom_bond_distance
    _geom_bond_site_symmetry_2
    _ccdc_geom_bond_type
    C196   N236      1.37435  1_554   S
    C196   C198      1.39563  1_554   S
    C197   N237      1.37439  1_554   S
    C197   C199      1.39560  1_554   S
    C140   C142      1.39182      .   S
    C140   H33       1.08886  1_554   S
    C140   C138      1.39563  1_554   S
    C139   C141      1.39177      .   S
    C139   H32       1.08890  1_554   S
    C139   C137      1.39565  1_554   S
    H80    C198      1.08889  1_554   S
    H81    C199      1.08882  1_554   S
    H60    C173      1.08698      .   S
    H61    C174      1.08603      .   S
    N225   C146      1.35341      .   S
    N225   C138      1.37407  1_554   S
    N224   C145      1.35292      .   S
    N224   C137      1.37435  1_554   S
    C142   H35       1.08927      .   S
    C142   C144      1.39694      .   S
    C141   H34       1.08959      .   S
    C141   C143      1.39695      .   S
    C146   C144      1.39303      .   S
    C146   H39       1.09135      .   S
    C145   C143      1.39303      .   S
    C145   H38       1.09136      .   S
    C174   N231      1.36033      .   S
    C174   C176      1.38441      .   S
    C173   N230      1.35986      .   S
    C173   C175      1.38406      .   S
    N231   C172      1.36055      .   S
    N230   C171      1.36055      .   S
    C144   H37       1.08925      .   S
    C143   H36       1.08923      .   S
    H5     C104      1.08915      .   S
    H4     C103      1.08916      .   S
    H62    C175      1.08881      .   S
    H63    C176      1.08883      .   S
    H2     C101      1.08968      .   S
    H3     C102      1.08958      .   S
    C175   C167      1.40569      .   S
    C176   C168      1.40559      .   S
    C171   H58       1.08682      .   S
    C171   C169      1.38514      .   S
    C172   H59       1.08684      .   S
    C172   C170      1.38543      .   S
    C104   C102      1.39695      .   S
    C104   C106      1.39330      .   S
    C103   C101      1.39693      .   S
    C103   C105      1.39324      .   S
    H95    C214      1.08868      .   S
    H96    C215      1.08888      .   S
    C102   C100      1.39176      .   S
    C101   C99       1.39178      .   S
    C207   C215      1.40586      .   S
    C207   C209      1.40407      .   S
    C206   C214      1.40546      .   S
    C206   C208      1.40400      .   S
    C214   C212      1.38456      .   S
    C215   C213      1.38339      .   S
    H67    C181      1.08964      .   S
    H66    C180      1.08965      .   S
    H88    C208      1.08854      .   S
    H89    C209      1.08802      .   S
    C167   C169      1.40363      .   S
    C168   C170      1.40401      .   S
    H7     C106      1.09128      .   S
    H6     C105      1.09131      .   S
    C169   H56       1.08879      .   S
    C170   H57       1.08816      .   S
    C209   C211      1.38534      .   S
    C208   C210      1.38483      .   S
    C106   N217      1.35270      .   S
    C105   N216      1.35271      .   S
    C181   C183      1.39683      .   S
    C181   C179      1.39192      .   S
    C180   C182      1.39684      .   S
    C180   C178      1.39193      .   S
    H68    C182      1.08918      .   S
    H69    C183      1.08919      .   S
    H65    C179      1.08898      .   S
    H64    C178      1.08899      .   S
    C100   H1        1.08896  1_545   S
    C100   C98       1.39576  1_545   S
    C99    H0        1.08898  1_545   S
    C99    C97       1.39573  1_545   S
    C213   H93       1.08744      .   S
    C213   N239      1.35987      .   S
    C212   H92       1.08707      .   S
    C212   N238      1.35997      .   S
    C182   C184      1.39304      .   S
    C183   C185      1.39303      .   S
    C179   C177      1.39574      .   S
    C178   C94       1.39575      .   S
    C210   N238      1.36089      .   S
    C210   H91       1.08715      .   S
    C211   N239      1.35994      .   S
    C211   H90       1.08657  1_655   S
    H73    C189      1.08806      .   S
    H72    C188      1.08805      .   S
    H29    C134      1.08701      .   S
    H28    C133      1.08704      .   S
    H75    C191      1.08694      .   S
    H74    C190      1.08692      .   S
    N217   C98       1.37462  1_545   S
    N216   C97       1.37460  1_545   S
    H30    C135      1.08823      .   S
    H31    C136      1.08886      .   S
    C184   H70       1.09134      .   S
    C184   N232      1.35278      .   S
    C185   H71       1.09133      .   S
    C185   N233      1.35280      .   S
    C177   N233      1.37451      .   S
    C94    N232      1.37448      .   S
    C189   C191      1.38553      .   S
    C189   C187      1.40403      .   S
    C188   C190      1.38551      .   S
    C188   C186      1.40411      .   S
    C191   N235      1.36057      .   S
    C190   N234      1.36057      .   S
    C134   C136      1.38400      .   S
    C134   N223      1.35992      .   S
    C133   C135      1.38434      .   S
    C133   N222      1.35990      .   S
    C135   C127      1.40626      .   S
    C136   C128      1.40595      .   S
    C187   C195      1.40594      .   S
    C186   C194      1.40594      .   S
    N222   C131      1.36057      .   S
    N223   C132      1.36057      .   S
    N235   C193      1.35990      .   S
    N234   C192      1.35993      .   S
    C127   C129      1.40400      .   S
    C128   C130      1.40402      .   S
    C195   C193      1.38398      .   S
    C195   H79       1.08867      .   S
    C194   C192      1.38398      .   S
    C194   H78       1.08890      .   S
    C193   H77       1.08703      .   S
    C192   H76       1.08702      .   S
    C132   C130      1.38553      .   S
    C132   H27       1.08687      .   S
    C131   C129      1.38555      .   S
    C131   H26       1.08688      .   S
    C129   H24       1.08809      .   S
    C130   H25       1.08809      .   S
    N221   C118      1.37454      .   S
    N221   C126      1.35278      .   S
    N220   C117      1.37450      .   S
    N220   C125      1.35277      .   S
    H23    C126      1.09130      .   S
    H22    C125      1.09132      .   S
    H43    C151      1.08677  1_655   S
    H42    C152      1.08691      .   S
    C158   N229      1.37462  1_545   S
    C158   C160      1.39575  1_545   S
    C157   N228      1.37462  1_545   S
    C157   C159      1.39573  1_545   S
    C117   C119      1.39575      .   S
    C118   C120      1.39574      .   S
    C126   C124      1.39304      .   S
    C125   C123      1.39303      .   S
    N227   C152      1.36057      .   S
    N227   C154      1.35996      .   S
    N226   C151      1.36051      .   S
    N226   C153      1.35996      .   S
    N229   C166      1.35268      .   S
    N228   C165      1.35218      .   S
    C151   C149      1.38544      .   S
    C152   C150      1.38533      .   S
    H8     C109      1.08818      .   S
    H9     C110      1.08804      .   S
    H49    C160      1.08898  1_545   S
    H48    C159      1.08898  1_545   S
    H45    C154      1.08694      .   S
    H44    C153      1.08700      .   S
    C120   H17       1.08899      .   S
    C120   C122      1.39192      .   S
    C119   H16       1.08897      .   S
    C119   C121      1.39193      .   S
    C124   H21       1.08920      .   S
    C124   C122      1.39682      .   S
    C123   H20       1.08919      .   S
    C123   C121      1.39683      .   S
    C154   C156      1.38413      .   S
    C153   C155      1.38403      .   S
    C160   C162      1.39175      .   S
    C159   C161      1.39177      .   S
    C122   H19       1.08963      .   S
    C121   H18       1.08964      .   S
    C165   H54       1.09111      .   S
    C165   C163      1.39397      .   S
    C166   H55       1.09129      .   S
    C166   C164      1.39326      .   S
    C149   H40       1.08803      .   S
    C149   C147      1.40403      .   S
    C150   H41       1.08804      .   S
    C150   C148      1.40403      .   S
    C110   C108      1.40406      .   S
    C110   C112      1.38552      .   S
    C109   C107      1.40396      .   S
    C109   C111      1.38544      .   S
    C107   C115      1.40574      .   S
    C108   C116      1.40562      .   S
    C156   C148      1.40580      .   S
    C156   H47       1.08886      .   S
    C155   C147      1.40589      .   S
    C155   H46       1.08856      .   S
    C162   C164      1.39695      .   S
    C162   H51       1.08915      .   S
    C161   C163      1.39694      .   S
    C161   H50       1.08969      .   S
    H10    C111      1.08687      .   S
    H11    C112      1.08687      .   S
    C164   H53       1.08924      .   S
    C163   H52       1.08925      .   S
    C111   N218      1.36008      .   S
    C112   N219      1.36000      .   S
    C115   H14       1.08885      .   S
    C115   C113      1.38404      .   S
    C116   H15       1.08886      .   S
    C116   C114      1.38409      .   S
    H84    C202      1.08917      .   S
    H85    C203      1.08920      .   S
    H86    C204      1.09140      .   S
    H87    C205      1.09141      .   S
    C202   C204      1.39308      .   S
    C202   C200      1.39698      .   S
    C203   C205      1.39305      .   S
    C203   C201      1.39694      .   S
    N218   C113      1.36006      .   S
    N219   C114      1.36010      .   S
    C113   H12       1.08701      .   S
    C114   H13       1.08702      .   S
    C204   N236      1.35285      .   S
    C205   N237      1.35272      .   S
    H82    C200      1.08963      .   S
    H83    C201      1.08959      .   S
    C200   C198      1.39176      .   S
    C201   C199      1.39186      .   S
