# CIF file generated by openbabel 2.4.90, see http://openbabel.sf.net
data_I
_chemical_name_common ''
_cell_length_a 18.538
_cell_length_b 16.297
_cell_length_c 16.338
_cell_angle_alpha 63.269
_cell_angle_beta 79.284
_cell_angle_gamma 100.929
_space_group_name_H-M_alt 'P 1'
_space_group_name_Hall 'P 1'
loop_
    _symmetry_equiv_pos_as_xyz
    x,y,z
loop_
    _atom_site_label
    _atom_site_type_symbol
    _atom_site_fract_x
    _atom_site_fract_y
    _atom_site_fract_z
    _atom_site_occupancy
    C0      C    0.65020   0.49939   0.42913   1.000
    C1      C    0.15596   0.35869   0.47667   1.000
    C2      C    0.65596   0.35870   0.47665   1.000
    C3      C    0.09907   0.92793   0.50139   1.000
    C4      C    0.59906   0.92793   0.50139   1.000
    C5      C    0.02368   0.83450   0.64180   1.000
    C6      C    0.52367   0.83451   0.64180   1.000
    C7      C    0.34983   0.50062   0.57082   1.000
    C8      C    0.84983   0.50061   0.57082   1.000
    N9      N    0.42178   0.56164   0.51170   1.000
    N10     N    0.92178   0.56164   0.51174   1.000
    N11     N    0.41846   0.65302   0.47959   1.000
    N12     N    0.91846   0.65301   0.47960   1.000
    N13     N    0.29935   0.54724   0.58104   1.000
    C14     C    0.34407   0.64132   0.52329   1.000
    C15     C    0.84407   0.64131   0.52330   1.000
    C16     C    0.13513   0.57078   0.92735   1.000
    C17     C    0.63515   0.57079   0.92735   1.000
    C18     C    0.10614   0.52334   0.83440   1.000
    C19     C    0.60615   0.52334   0.83443   1.000
    C20     C    0.40096   0.07204   0.49857   1.000
    C21     C    0.90096   0.07205   0.49855   1.000
    C22     C    0.47635   0.16547   0.35816   1.000
    C23     C    0.97635   0.16546   0.35815   1.000
    C24     C    0.15020   0.49939   0.42915   1.000
    C25     C    0.36490   0.42921   0.07259   1.000
    C26     C    0.86491   0.42922   0.07259   1.000
    C27     C    0.39388   0.47665   0.16551   1.000
    C28     C    0.89390   0.47667   0.16551   1.000
    N29     N    0.14110   0.92592   0.56195   1.000
    N30     N    0.64109   0.92592   0.56194   1.000
    N31     N    0.09258   0.86649   0.65315   1.000
    N32     N    0.59257   0.86649   0.65314   1.000
    N33     N    0.02532   0.87093   0.54810   1.000
    N34     N    0.52531   0.87094   0.54815   1.000
    N35     N    0.79935   0.54723   0.58100   1.000
    N36     N    0.17807   0.51203   0.92580   1.000
    N37     N    0.67807   0.51203   0.92581   1.000
    N38     N    0.15906   0.47996   0.86668   1.000
    N39     N    0.65907   0.47997   0.86668   1.000
    N40     N    0.08973   0.58083   0.87043   1.000
    N41     N    0.58974   0.58083   0.87044   1.000
    N42     N    0.35893   0.07408   0.43801   1.000
    N43     N    0.85893   0.07406   0.43800   1.000
    N44     N    0.40745   0.13350   0.34681   1.000
    N45     N    0.90744   0.13350   0.34680   1.000
    N46     N    0.47471   0.12903   0.45180   1.000
    N47     N    0.97470   0.12902   0.45179   1.000
    N48     N    0.07825   0.43837   0.48822   1.000
    N49     N    0.57825   0.43837   0.48822   1.000
    N50     N    0.08156   0.34700   0.52036   1.000
    N51     N    0.58157   0.34699   0.52034   1.000
    N52     N    0.20068   0.45277   0.41893   1.000
    N53     N    0.70068   0.45277   0.41890   1.000
    N54     N    0.32196   0.48796   0.07414   1.000
    N55     N    0.82197   0.48797   0.07414   1.000
    N56     N    0.34095   0.52000   0.13328   1.000
    N57     N    0.84096   0.52002   0.13328   1.000
    N58     N    0.41031   0.41918   0.12949   1.000
    N59     N    0.91032   0.41919   0.12940   1.000
loop_
    _geom_bond_atom_site_label_1
    _geom_bond_atom_site_label_2
    _geom_bond_distance
    _geom_bond_site_symmetry_2
    _ccdc_geom_bond_type
    C26    N55       1.36164      .   S
    C26    N59       1.34289      .   S
    C25    N54       1.36164      .   S
    C25    N58       1.34400      .   S
    N55    N57       1.35692      .   S
    N54    N56       1.35685      .   S
    N59    C28       1.36253      .   S
    N58    C27       1.36148      .   S
    N56    C27       1.36370      .   S
    N57    C28       1.36370      .   S
    N45    C23       1.36380      .   S
    N45    N43       1.35656      .   S
    N44    C22       1.36379      .   S
    N44    N42       1.35655      .   S
    C23    N47       1.36112      .   S
    C22    N46       1.36113      .   S
    N53    C0        1.34409      .   S
    N53    C2        1.36161      .   S
    N52    C24       1.34409      .   S
    N52    C1        1.36162      .   S
    C0     N49       1.36183      .   S
    C24    N48       1.36182      .   S
    N43    C21       1.36158      .   S
    N42    C20       1.36169      .   S
    N47    C21       1.34424      .   S
    N46    C20       1.34427      .   S
    C2     N51       1.36366      .   S
    C1     N50       1.36371      .   S
    N11    N9        1.35662      .   S
    N11    C14       1.36369      .   S
    N12    N10       1.35658      .   S
    N12    C15       1.36366      .   S
    N49    N51       1.35661      .   S
    N48    N50       1.35657      .   S
    C3     N33       1.34421      .   S
    C3     N29       1.36171      .   S
    C4     N34       1.34424      .   S
    C4     N30       1.36159      .   S
    N9     C7        1.36192      .   S
    N10    C8        1.36183      .   S
    C14    N13       1.36161      .   S
    C15    N35       1.36156      .   S
    N33    C5        1.36202      .   S
    N34    C6        1.36129      .   S
    N30    N32       1.35655      .   S
    N29    N31       1.35656      .   S
    C7     N13       1.34407      .   S
    C8     N35       1.34384      .   S
    C6     N32       1.36373      .   S
    C5     N31       1.36383      .   S
    C18    N38       1.36382      .   S
    C18    N40       1.36182      .   S
    C19    N39       1.36371      .   S
    C19    N41       1.36151      .   S
    N38    N36       1.35688      .   S
    N39    N37       1.35683      .   S
    N40    C16       1.34398      .   S
    N41    C17       1.34402      .   S
    N36    C16       1.36164      .   S
    N37    C17       1.36166      .   S
