# CIF file generated by openbabel 2.4.90, see http://openbabel.sf.net
data_I
_chemical_name_common ''
_cell_length_a 18.538
_cell_length_b 16.297
_cell_length_c 16.338
_cell_angle_alpha 63.269
_cell_angle_beta 79.284
_cell_angle_gamma 100.929
_space_group_name_H-M_alt 'P 1'
_space_group_name_Hall 'P 1'
loop_
    _symmetry_equiv_pos_as_xyz
    x,y,z
loop_
    _atom_site_label
    _atom_site_type_symbol
    _atom_site_fract_x
    _atom_site_fract_y
    _atom_site_fract_z
    _atom_site_occupancy
    H0      H    0.04421   0.97720   0.34636   1.000
    H1      H    0.54420   0.97719   0.34636   1.000
    H2      H    0.12543   0.09950   0.17371   1.000
    H3      H    0.62542   0.09949   0.17371   1.000
    H4      H    0.26606   0.17909   0.14156   1.000
    H5      H    0.76605   0.17908   0.14155   1.000
    H6      H    0.31982   0.13380   0.27966   1.000
    H7      H    0.81981   0.13379   0.27964   1.000
    H8      H    0.39284   0.72577   0.64112   1.000
    H9      H    0.89287   0.72573   0.64113   1.000
    H10     H    0.28639   0.59527   0.78492   1.000
    H11     H    0.78642   0.59524   0.78493   1.000
    H12     H    0.38609   0.65335   0.96853   1.000
    H13     H    0.88609   0.65338   0.96854   1.000
    H14     H    0.49946   0.78110   0.83169   1.000
    H15     H    0.99946   0.78113   0.83169   1.000
    H16     H    0.21820   0.34439   0.67750   1.000
    H17     H    0.71821   0.34437   0.67751   1.000
    H18     H    0.21404   0.17159   0.72804   1.000
    H19     H    0.71405   0.17158   0.72803   1.000
    H20     H    0.33874   0.14027   0.68029   1.000
    H21     H    0.83875   0.14027   0.68026   1.000
    H22     H    0.46085   0.27928   0.58713   1.000
    H23     H    0.96085   0.27929   0.58710   1.000
    H24     H    0.21345   0.64009   0.63327   1.000
    H25     H    0.71346   0.64008   0.63329   1.000
    H26     H    0.17914   0.78412   0.62031   1.000
    H27     H    0.67913   0.78411   0.62031   1.000
    H28     H    0.36933   0.96909   0.37751   1.000
    H29     H    0.86931   0.96908   0.37750   1.000
    H30     H    0.41394   0.83204   0.38610   1.000
    H31     H    0.91393   0.83203   0.38610   1.000
    H32     H    0.05542   0.67611   0.97650   1.000
    H33     H    0.55543   0.67612   0.97650   1.000
    H34     H    0.07568   0.72637   0.09856   1.000
    H35     H    0.57570   0.72639   0.09850   1.000
    H36     H    0.17720   0.67980   0.17761   1.000
    H37     H    0.67722   0.67983   0.17759   1.000
    H38     H    0.25391   0.58764   0.13226   1.000
    H39     H    0.75392   0.58765   0.13225   1.000
    H40     H    0.02991   0.63331   0.72513   1.000
    H41     H    0.52986   0.63325   0.72519   1.000
    H42     H    0.48883   0.62022   0.59458   1.000
    H43     H    0.98889   0.62027   0.59452   1.000
    H44     H    0.05901   0.37741   0.65373   1.000
    H45     H    0.55909   0.37746   0.65368   1.000
    H46     H    0.10820   0.38613   0.78170   1.000
    H47     H    0.60829   0.38619   0.78170   1.000
    H48     H    0.45582   0.02277   0.65360   1.000
    H49     H    0.95581   0.02277   0.65359   1.000
    H50     H    0.37459   0.90048   0.82625   1.000
    H51     H    0.87459   0.90049   0.82620   1.000
    H52     H    0.23396   0.82091   0.85841   1.000
    H53     H    0.73396   0.82092   0.85840   1.000
    H54     H    0.18020   0.86621   0.72030   1.000
    H55     H    0.68019   0.86622   0.72030   1.000
    H56     H    0.10717   0.27418   0.35883   1.000
    H57     H    0.60719   0.27419   0.35884   1.000
    H58     H    0.21362   0.40468   0.21504   1.000
    H59     H    0.71364   0.40469   0.21504   1.000
    H60     H    0.11393   0.34662   0.03141   1.000
    H61     H    0.61393   0.34663   0.03143   1.000
    H62     H    0.00056   0.21888   0.16825   1.000
    H63     H    0.50056   0.21888   0.16827   1.000
    H64     H    0.28183   0.65562   0.32248   1.000
    H65     H    0.78183   0.65563   0.32245   1.000
    H66     H    0.28599   0.82842   0.27193   1.000
    H67     H    0.78599   0.82842   0.27191   1.000
    H68     H    0.16129   0.85975   0.31964   1.000
    H69     H    0.66129   0.85974   0.31966   1.000
    H70     H    0.03918   0.72073   0.41279   1.000
    H71     H    0.53918   0.72072   0.41282   1.000
    H72     H    0.28658   0.35992   0.36670   1.000
    H73     H    0.78659   0.35992   0.36669   1.000
    H74     H    0.32090   0.21589   0.37966   1.000
    H75     H    0.82090   0.21589   0.37965   1.000
    H76     H    0.13069   0.03092   0.62244   1.000
    H77     H    0.63069   0.03092   0.62242   1.000
    H78     H    0.08608   0.16797   0.61385   1.000
    H79     H    0.58608   0.16798   0.61380   1.000
    H80     H    0.44465   0.32393   0.02340   1.000
    H81     H    0.94464   0.32391   0.02342   1.000
    H82     H    0.42437   0.27366   0.90135   1.000
    H83     H    0.92435   0.27360   0.90141   1.000
    H84     H    0.32282   0.32017   0.82235   1.000
    H85     H    0.82279   0.32011   0.82241   1.000
    H86     H    0.24610   0.41231   0.86772   1.000
    H87     H    0.74608   0.41228   0.86775   1.000
    H88     H    0.47018   0.36675   0.27470   1.000
    H89     H    0.97022   0.36679   0.27472   1.000
    H90     H    0.01124   0.37982   0.40530   1.000
    H91     H    0.51120   0.37979   0.40537   1.000
    H92     H    0.44094   0.62255   0.34626   1.000
    H93     H    0.94093   0.62254   0.34627   1.000
    C94     C    0.65020   0.49939   0.42913   1.000
    C95     C    0.15596   0.35869   0.47667   1.000
    C96     C    0.65596   0.35870   0.47665   1.000
    C97     C    0.15974   0.60072   0.39197   1.000
    H98     H    0.39175   0.61382   0.21823   1.000
    H99     H    0.89174   0.61381   0.21824   1.000
    C100    C    0.09907   0.92793   0.50139   1.000
    C101    C    0.59906   0.92793   0.50139   1.000
    C102    C    0.02368   0.83450   0.64180   1.000
    C103    C    0.52367   0.83451   0.64180   1.000
    C104    C    0.13957   0.99227   0.40034   1.000
    C105    C    0.63956   0.99227   0.40033   1.000
    C106    C    0.10566   0.01312   0.32682   1.000
    C107    C    0.60564   0.01311   0.32681   1.000
    C108    C    0.15075   0.08060   0.23228   1.000
    C109    C    0.65073   0.08059   0.23227   1.000
    C110    C    0.22870   0.12500   0.21417   1.000
    C111    C    0.72869   0.12499   0.21416   1.000
    C112    C    0.25927   0.10082   0.29061   1.000
    C113    C    0.75926   0.10081   0.29060   1.000
    C114    C    0.45654   0.76412   0.72381   1.000
    C115    C    0.95656   0.76411   0.72382   1.000
    C116    C    0.39359   0.71142   0.71271   1.000
    C117    C    0.89361   0.71140   0.71271   1.000
    C118    C    0.33368   0.63878   0.79306   1.000
    C119    C    0.83370   0.63876   0.79307   1.000
    C120    C    0.38977   0.67064   0.89510   1.000
    C121    C    0.88977   0.67065   0.89511   1.000
    C122    C    0.45256   0.74241   0.81843   1.000
    C123    C    0.95256   0.74242   0.81843   1.000
    C124    C    0.34983   0.50062   0.57082   1.000
    C125    C    0.84983   0.50061   0.57082   1.000
    N126    N    0.42178   0.56164   0.51170   1.000
    N127    N    0.92178   0.56164   0.51174   1.000
    N128    N    0.41846   0.65302   0.47959   1.000
    N129    N    0.91846   0.65301   0.47960   1.000
    N130    N    0.29935   0.54724   0.58104   1.000
    C131    C    0.34407   0.64132   0.52329   1.000
    C132    C    0.84407   0.64131   0.52330   1.000
    C133    C    0.34029   0.39930   0.60799   1.000
    C134    C    0.84029   0.39929   0.60800   1.000
    C135    C    0.27001   0.32522   0.66100   1.000
    C136    C    0.77002   0.32521   0.66100   1.000
    C137    C    0.26833   0.23058   0.68820   1.000
    C138    C    0.76834   0.23057   0.68819   1.000
    C139    C    0.33731   0.21291   0.66174   1.000
    C140    C    0.83732   0.21292   0.66172   1.000
    C141    C    0.40570   0.28986   0.60925   1.000
    C142    C    0.90570   0.28986   0.60922   1.000
    C143    C    0.31785   0.72342   0.51170   1.000
    C144    C    0.81784   0.72341   0.51171   1.000
    C145    C    0.24975   0.71203   0.57587   1.000
    C146    C    0.74974   0.71203   0.57588   1.000
    C147    C    0.23016   0.79251   0.56838   1.000
    C148    C    0.73016   0.79251   0.56838   1.000
    C149    C    0.33653   0.89530   0.43383   1.000
    C150    C    0.83652   0.89529   0.43382   1.000
    C151    C    0.36080   0.81851   0.43840   1.000
    C152    C    0.86079   0.81849   0.43847   1.000
    C153    C    0.13513   0.57078   0.92735   1.000
    C154    C    0.63515   0.57079   0.92735   1.000
    C155    C    0.10614   0.52334   0.83440   1.000
    C156    C    0.60615   0.52334   0.83443   1.000
    C157    C    0.14369   0.60777   0.99132   1.000
    C158    C    0.64369   0.60776   0.99133   1.000
    C159    C    0.09919   0.66010   0.01218   1.000
    C160    C    0.59920   0.66012   0.01217   1.000
    C161    C    0.11067   0.68717   0.07949   1.000
    C162    C    0.61069   0.68718   0.07948   1.000
    C163    C    0.16679   0.66131   0.12362   1.000
    C164    C    0.66681   0.66134   0.12360   1.000
    C165    C    0.20962   0.60943   0.09941   1.000
    C166    C    0.70964   0.60945   0.09940   1.000
    C167    C    0.07416   0.51168   0.76409   1.000
    C168    C    0.57417   0.51168   0.76409   1.000
    C169    C    0.03774   0.57587   0.71101   1.000
    C170    C    0.53772   0.57584   0.71104   1.000
    C171    C    0.01429   0.56834   0.63827   1.000
    C172    C    0.51427   0.56831   0.63831   1.000
    C173    C    0.05411   0.43374   0.67082   1.000
    C174    C    0.55416   0.43376   0.67079   1.000
    C175    C    0.08086   0.43845   0.74273   1.000
    C176    C    0.58091   0.43848   0.74270   1.000
    C177    C    0.40096   0.07204   0.49857   1.000
    C178    C    0.90096   0.07205   0.49855   1.000
    C179    C    0.47635   0.16547   0.35816   1.000
    C180    C    0.97635   0.16546   0.35815   1.000
    C181    C    0.36046   0.00771   0.59962   1.000
    C182    C    0.86046   0.00771   0.59961   1.000
    C183    C    0.39437   0.98686   0.67314   1.000
    C184    C    0.89437   0.98686   0.67313   1.000
    C185    C    0.34928   0.91939   0.76768   1.000
    C186    C    0.84928   0.91940   0.76767   1.000
    C187    C    0.27132   0.87500   0.78579   1.000
    C188    C    0.77132   0.87501   0.78578   1.000
    C189    C    0.24075   0.89918   0.70930   1.000
    C190    C    0.74075   0.89919   0.70934   1.000
    C191    C    0.04347   0.23585   0.27613   1.000
    C192    C    0.54348   0.23586   0.27614   1.000
    C193    C    0.10643   0.28854   0.28720   1.000
    C194    C    0.60645   0.28854   0.28725   1.000
    C195    C    0.16634   0.36118   0.20690   1.000
    C196    C    0.66635   0.36119   0.20690   1.000
    C197    C    0.11025   0.32933   0.10484   1.000
    C198    C    0.61025   0.32934   0.10480   1.000
    C199    C    0.04746   0.25756   0.18151   1.000
    C200    C    0.54746   0.25757   0.18153   1.000
    C201    C    0.15020   0.49939   0.42915   1.000
    C202    C    0.65975   0.60072   0.39195   1.000
    C203    C    0.23002   0.67479   0.33897   1.000
    C204    C    0.73002   0.67479   0.33895   1.000
    C205    C    0.23170   0.76943   0.31176   1.000
    C206    C    0.73170   0.76943   0.31175   1.000
    C207    C    0.16271   0.78710   0.33820   1.000
    C208    C    0.66272   0.78710   0.33821   1.000
    C209    C    0.09433   0.71015   0.39068   1.000
    C210    C    0.59433   0.71015   0.39070   1.000
    C211    C    0.18218   0.27659   0.48826   1.000
    C212    C    0.68219   0.27659   0.48824   1.000
    C213    C    0.25029   0.28797   0.42409   1.000
    C214    C    0.75029   0.28797   0.42408   1.000
    C215    C    0.26987   0.20749   0.43159   1.000
    C216    C    0.76987   0.20749   0.43158   1.000
    C217    C    0.16350   0.10470   0.56613   1.000
    C218    C    0.66349   0.10470   0.56611   1.000
    C219    C    0.13923   0.18150   0.56148   1.000
    C220    C    0.63923   0.18151   0.56146   1.000
    C221    C    0.36490   0.42921   0.07259   1.000
    C222    C    0.86491   0.42922   0.07259   1.000
    C223    C    0.39388   0.47665   0.16551   1.000
    C224    C    0.89390   0.47667   0.16551   1.000
    C225    C    0.35635   0.39224   0.00861   1.000
    C226    C    0.85635   0.39223   0.00862   1.000
    C227    C    0.40086   0.33992   0.98774   1.000
    C228    C    0.90085   0.33989   0.98777   1.000
    C229    C    0.38937   0.31284   0.92044   1.000
    C230    C    0.88935   0.31280   0.92048   1.000
    C231    C    0.33323   0.33867   0.87633   1.000
    C232    C    0.83321   0.33862   0.87638   1.000
    C233    C    0.29039   0.39054   0.90056   1.000
    C234    C    0.79038   0.39051   0.90059   1.000
    C235    C    0.42588   0.48832   0.23585   1.000
    C236    C    0.92589   0.48834   0.23583   1.000
    C237    C    0.46232   0.42417   0.28890   1.000
    C238    C    0.96235   0.42419   0.28888   1.000
    C239    C    0.48577   0.43170   0.36160   1.000
    C240    C    0.98580   0.43173   0.36161   1.000
    C241    C    0.44588   0.56624   0.32914   1.000
    C242    C    0.94588   0.56625   0.32910   1.000
    C243    C    0.41913   0.56153   0.25720   1.000
    C244    C    0.91913   0.56153   0.25724   1.000
    N245    N    0.14110   0.92592   0.56195   1.000
    N246    N    0.64109   0.92592   0.56194   1.000
    N247    N    0.09258   0.86649   0.65315   1.000
    N248    N    0.59257   0.86649   0.65314   1.000
    N249    N    0.02532   0.87093   0.54810   1.000
    N250    N    0.52531   0.87094   0.54815   1.000
    N251    N    0.21628   0.03554   0.38293   1.000
    N252    N    0.71627   0.03554   0.38292   1.000
    N253    N    0.33074   0.61611   0.88480   1.000
    N254    N    0.83075   0.61611   0.88480   1.000
    N255    N    0.79935   0.54723   0.58100   1.000
    N256    N    0.40837   0.38229   0.58201   1.000
    N257    N    0.90838   0.38229   0.58200   1.000
    N258    N    0.27286   0.88471   0.49910   1.000
    N259    N    0.77285   0.88470   0.49910   1.000
    N260    N    0.17807   0.51203   0.92580   1.000
    N261    N    0.67807   0.51203   0.92581   1.000
    N262    N    0.15906   0.47996   0.86668   1.000
    N263    N    0.65907   0.47997   0.86668   1.000
    N264    N    0.08973   0.58083   0.87043   1.000
    N265    N    0.58974   0.58083   0.87044   1.000
    N266    N    0.19903   0.58222   0.03443   1.000
    N267    N    0.69904   0.58222   0.03440   1.000
    N268    N    0.02262   0.49901   0.61588   1.000
    N269    N    0.52264   0.49901   0.61588   1.000
    N270    N    0.35893   0.07408   0.43801   1.000
    N271    N    0.85893   0.07406   0.43800   1.000
    N272    N    0.40745   0.13350   0.34681   1.000
    N273    N    0.90744   0.13350   0.34680   1.000
    N274    N    0.47471   0.12903   0.45180   1.000
    N275    N    0.97470   0.12902   0.45179   1.000
    N276    N    0.28374   0.96445   0.61703   1.000
    N277    N    0.78374   0.96445   0.61702   1.000
    N278    N    0.16928   0.38386   0.11513   1.000
    N279    N    0.66929   0.38387   0.11513   1.000
    N280    N    0.07825   0.43837   0.48822   1.000
    N281    N    0.57825   0.43837   0.48822   1.000
    N282    N    0.08156   0.34700   0.52036   1.000
    N283    N    0.58157   0.34699   0.52034   1.000
    N284    N    0.20068   0.45277   0.41893   1.000
    N285    N    0.70068   0.45277   0.41890   1.000
    N286    N    0.09165   0.61772   0.41793   1.000
    N287    N    0.59166   0.61772   0.41793   1.000
    N288    N    0.22717   0.11529   0.50085   1.000
    N289    N    0.72717   0.11529   0.50084   1.000
    N290    N    0.32196   0.48796   0.07414   1.000
    N291    N    0.82197   0.48797   0.07414   1.000
    N292    N    0.34095   0.52000   0.13328   1.000
    N293    N    0.84096   0.52002   0.13328   1.000
    N294    N    0.41031   0.41918   0.12949   1.000
    N295    N    0.91032   0.41919   0.12940   1.000
    N296    N    0.30099   0.41776   0.96553   1.000
    N297    N    0.80099   0.41775   0.96553   1.000
    N298    N    0.47740   0.50099   0.38406   1.000
    N299    N    0.97740   0.50100   0.38400   1.000
loop_
    _geom_bond_atom_site_label_1
    _geom_bond_atom_site_label_2
    _geom_bond_distance
    _geom_bond_site_symmetry_2
    _ccdc_geom_bond_type
    C225   C221      1.43978      .   S
    C225   N296      1.37435  1_554   S
    C225   C227      1.39563  1_554   S
    C226   C222      1.43983      .   S
    C226   N297      1.37439  1_554   S
    C226   C228      1.39560  1_554   S
    C160   C162      1.39182      .   S
    C160   H33       1.08886  1_554   S
    C160   C158      1.39563  1_554   S
    C159   C161      1.39177      .   S
    C159   H32       1.08890  1_554   S
    C159   C157      1.39565  1_554   S
    H80    C227      1.08889  1_554   S
    H81    C228      1.08882  1_554   S
    H60    C197      1.08698      .   S
    H61    C198      1.08603      .   S
    N267   C166      1.35341      .   S
    N267   C158      1.37407  1_554   S
    N266   C165      1.35292      .   S
    N266   C157      1.37435  1_554   S
    C222   N291      1.36164      .   S
    C222   N295      1.34289      .   S
    C221   N290      1.36164      .   S
    C221   N294      1.34400      .   S
    N291   N293      1.35692      .   S
    N290   N292      1.35685      .   S
    C162   H35       1.08927      .   S
    C162   C164      1.39694      .   S
    C161   H34       1.08959      .   S
    C161   C163      1.39695      .   S
    C166   C164      1.39303      .   S
    C166   H39       1.09135      .   S
    C165   C163      1.39303      .   S
    C165   H38       1.09136      .   S
    C198   N279      1.36033      .   S
    C198   C200      1.38441      .   S
    C197   N278      1.35986      .   S
    C197   C199      1.38406      .   S
    N279   C196      1.36055      .   S
    N278   C195      1.36055      .   S
    C164   H37       1.08925      .   S
    C163   H36       1.08923      .   S
    N295   C224      1.36253      .   S
    N294   C223      1.36148      .   S
    N292   C223      1.36370      .   S
    N293   C224      1.36370      .   S
    H5     C111      1.08915      .   S
    H4     C110      1.08916      .   S
    C224   C236      1.45436      .   S
    C223   C235      1.45459      .   S
    H62    C199      1.08881      .   S
    H63    C200      1.08883      .   S
    H2     C108      1.08968      .   S
    H3     C109      1.08958      .   S
    C199   C191      1.40569      .   S
    C200   C192      1.40559      .   S
    C195   H58       1.08682      .   S
    C195   C193      1.38514      .   S
    C196   H59       1.08684      .   S
    C196   C194      1.38543      .   S
    C111   C109      1.39695      .   S
    C111   C113      1.39330      .   S
    C110   C108      1.39693      .   S
    C110   C112      1.39324      .   S
    H98    C243      1.08868      .   S
    H99    C244      1.08888      .   S
    C109   C107      1.39176      .   S
    C108   C106      1.39178      .   S
    C236   C244      1.40586      .   S
    C236   C238      1.40407      .   S
    C235   C243      1.40546      .   S
    C235   C237      1.40400      .   S
    C243   C241      1.38456      .   S
    C244   C242      1.38339      .   S
    H67    C206      1.08964      .   S
    H66    C205      1.08965      .   S
    H88    C237      1.08854      .   S
    H89    C238      1.08802      .   S
    C191   C193      1.40363      .   S
    C191   C180      1.45459  1_455   S
    C192   C194      1.40401      .   S
    C192   C179      1.45467      .   S
    H7     C113      1.09128      .   S
    H6     C112      1.09131      .   S
    C193   H56       1.08879      .   S
    C194   H57       1.08816      .   S
    C238   C240      1.38534      .   S
    C237   C239      1.38483      .   S
    C113   N252      1.35270      .   S
    C112   N251      1.35271      .   S
    C206   C208      1.39683      .   S
    C206   C204      1.39192      .   S
    C205   C207      1.39684      .   S
    C205   C203      1.39193      .   S
    H68    C207      1.08918      .   S
    H69    C208      1.08919      .   S
    H65    C204      1.08898      .   S
    H64    C203      1.08899      .   S
    C107   H1        1.08896  1_545   S
    C107   C105      1.39576  1_545   S
    C106   H0        1.08898  1_545   S
    C106   C104      1.39573  1_545   S
    C242   H93       1.08744      .   S
    C242   N299      1.35987      .   S
    C241   H92       1.08707      .   S
    C241   N298      1.35997      .   S
    C207   C209      1.39304      .   S
    C208   C210      1.39303      .   S
    C204   C202      1.39574      .   S
    C203   C97       1.39575      .   S
    N273   C180      1.36380      .   S
    N273   N271      1.35656      .   S
    N272   C179      1.36379      .   S
    N272   N270      1.35655      .   S
    C180   N275      1.36112      .   S
    C179   N274      1.36113      .   S
    C239   N298      1.36089      .   S
    C239   H91       1.08715      .   S
    C240   N299      1.35994      .   S
    C240   H90       1.08657  1_655   S
    H73    C214      1.08806      .   S
    H72    C213      1.08805      .   S
    H29    C150      1.08701      .   S
    H28    C149      1.08704      .   S
    H75    C216      1.08694      .   S
    H74    C215      1.08692      .   S
    N252   C105      1.37462  1_545   S
    N251   C104      1.37460  1_545   S
    H30    C151      1.08823      .   S
    H31    C152      1.08886      .   S
    C209   H70       1.09134      .   S
    C209   N286      1.35278      .   S
    C210   H71       1.09133      .   S
    C210   N287      1.35280      .   S
    C202   N287      1.37451      .   S
    C202   C94       1.44007      .   S
    C97    N286      1.37448      .   S
    C97    C201      1.44007      .   S
    C105   C101      1.43957      .   S
    C104   C100      1.43945      .   S
    N285   C94       1.34409      .   S
    N285   C96       1.36161      .   S
    N284   C201      1.34409      .   S
    N284   C95       1.36162      .   S
    C214   C216      1.38553      .   S
    C214   C212      1.40403      .   S
    C213   C215      1.38551      .   S
    C213   C211      1.40411      .   S
    C94    N281      1.36183      .   S
    C201   N280      1.36182      .   S
    C216   N289      1.36057      .   S
    C215   N288      1.36057      .   S
    C150   C152      1.38400      .   S
    C150   N259      1.35992      .   S
    C149   C151      1.38434      .   S
    C149   N258      1.35990      .   S
    N271   C178      1.36158      .   S
    N270   C177      1.36169      .   S
    C151   C143      1.40626      .   S
    C152   C144      1.40595      .   S
    N275   C178      1.34424      .   S
    N274   C177      1.34427      .   S
    C96    C212      1.45452      .   S
    C96    N283      1.36366      .   S
    C95    C211      1.45448      .   S
    C95    N282      1.36371      .   S
    N128   N126      1.35662      .   S
    N128   C131      1.36369      .   S
    N129   N127      1.35658      .   S
    N129   C132      1.36366      .   S
    N281   N283      1.35661      .   S
    N280   N282      1.35657      .   S
    C212   C220      1.40594      .   S
    C211   C219      1.40594      .   S
    C178   C182      1.43957      .   S
    C177   C181      1.43944      .   S
    N258   C147      1.36057      .   S
    N259   C148      1.36057      .   S
    N289   C218      1.35990      .   S
    N288   C217      1.35993      .   S
    C100   N249      1.34421      .   S
    C100   N245      1.36171      .   S
    C101   N250      1.34424      .   S
    C101   N246      1.36159      .   S
    C143   C131      1.45448      .   S
    C143   C145      1.40400      .   S
    N126   C124      1.36192      .   S
    C144   C132      1.45451      .   S
    C144   C146      1.40402      .   S
    N127   C125      1.36183      .   S
    C131   N130      1.36161      .   S
    C132   N255      1.36156      .   S
    N249   C102      1.36202      .   S
    N250   C103      1.36129      .   S
    C220   C218      1.38398      .   S
    C220   H79       1.08867      .   S
    C219   C217      1.38398      .   S
    C219   H78       1.08890      .   S
    N246   N248      1.35655      .   S
    N245   N247      1.35656      .   S
    C218   H77       1.08703      .   S
    C217   H76       1.08702      .   S
    C148   C146      1.38553      .   S
    C148   H27       1.08687      .   S
    C147   C145      1.38555      .   S
    C147   H26       1.08688      .   S
    C124   N130      1.34407      .   S
    C124   C133      1.44006      .   S
    C125   N255      1.34384      .   S
    C125   C134      1.44008      .   S
    C145   H24       1.08809      .   S
    C146   H25       1.08809      .   S
    N257   C134      1.37454      .   S
    N257   C142      1.35278      .   S
    N256   C133      1.37450      .   S
    N256   C141      1.35277      .   S
    H23    C142      1.09130      .   S
    H22    C141      1.09132      .   S
    H43    C171      1.08677  1_655   S
    H42    C172      1.08691      .   S
    C182   N277      1.37462  1_545   S
    C182   C184      1.39575  1_545   S
    C181   N276      1.37462  1_545   S
    C181   C183      1.39573  1_545   S
    C133   C135      1.39575      .   S
    C134   C136      1.39574      .   S
    C142   C140      1.39304      .   S
    C141   C139      1.39303      .   S
    N269   C172      1.36057      .   S
    N269   C174      1.35996      .   S
    N268   C171      1.36051      .   S
    N268   C173      1.35996      .   S
    N277   C190      1.35268      .   S
    N276   C189      1.35218      .   S
    C171   C169      1.38544      .   S
    C172   C170      1.38533      .   S
    H8     C116      1.08818      .   S
    H9     C117      1.08804      .   S
    C103   N248      1.36373      .   S
    C103   C114      1.45460      .   S
    C102   N247      1.36383      .   S
    C102   C115      1.45459  1_455   S
    H49    C184      1.08898  1_545   S
    H48    C183      1.08898  1_545   S
    H45    C174      1.08694      .   S
    H44    C173      1.08700      .   S
    C136   H17       1.08899      .   S
    C136   C138      1.39192      .   S
    C135   H16       1.08897      .   S
    C135   C137      1.39193      .   S
    C140   H21       1.08920      .   S
    C140   C138      1.39682      .   S
    C139   H20       1.08919      .   S
    C139   C137      1.39683      .   S
    C174   C176      1.38413      .   S
    C173   C175      1.38403      .   S
    C184   C186      1.39175      .   S
    C183   C185      1.39177      .   S
    C138   H19       1.08963      .   S
    C137   H18       1.08964      .   S
    C189   H54       1.09111      .   S
    C189   C187      1.39397      .   S
    C190   H55       1.09129      .   S
    C190   C188      1.39326      .   S
    C169   H40       1.08803      .   S
    C169   C167      1.40403      .   S
    C170   H41       1.08804      .   S
    C170   C168      1.40403      .   S
    C117   C115      1.40406      .   S
    C117   C119      1.38552      .   S
    C116   C114      1.40396      .   S
    C116   C118      1.38544      .   S
    C114   C122      1.40574      .   S
    C115   C123      1.40562      .   S
    C176   C168      1.40580      .   S
    C176   H47       1.08886      .   S
    C175   C167      1.40589      .   S
    C175   H46       1.08856      .   S
    C167   C155      1.45405      .   S
    C168   C156      1.45450      .   S
    C186   C188      1.39695      .   S
    C186   H51       1.08915      .   S
    C185   C187      1.39694      .   S
    C185   H50       1.08969      .   S
    H10    C118      1.08687      .   S
    H11    C119      1.08687      .   S
    C188   H53       1.08924      .   S
    C187   H52       1.08925      .   S
    C118   N253      1.36008      .   S
    C119   N254      1.36000      .   S
    C122   H14       1.08885      .   S
    C122   C120      1.38404      .   S
    C123   H15       1.08886      .   S
    C123   C121      1.38409      .   S
    H84    C231      1.08917      .   S
    H85    C232      1.08920      .   S
    C155   N262      1.36382      .   S
    C155   N264      1.36182      .   S
    C156   N263      1.36371      .   S
    C156   N265      1.36151      .   S
    N262   N260      1.35688      .   S
    N263   N261      1.35683      .   S
    H86    C233      1.09140      .   S
    H87    C234      1.09141      .   S
    N264   C153      1.34398      .   S
    N265   C154      1.34402      .   S
    C231   C233      1.39308      .   S
    C231   C229      1.39698      .   S
    C232   C234      1.39305      .   S
    C232   C230      1.39694      .   S
    N253   C120      1.36006      .   S
    N254   C121      1.36010      .   S
    C120   H12       1.08701      .   S
    C121   H13       1.08702      .   S
    C233   N296      1.35285      .   S
    C234   N297      1.35272      .   S
    H82    C229      1.08963      .   S
    H83    C230      1.08959      .   S
    C229   C227      1.39176      .   S
    C230   C228      1.39186      .   S
    N260   C153      1.36164      .   S
    N261   C154      1.36166      .   S
    C153   C157      1.43979      .   S
    C154   C158      1.43976      .   S
