# CIF file generated by openbabel 2.4.90, see http://openbabel.sf.net
data_I
_chemical_name_common ''
_cell_length_a 18.538
_cell_length_b 16.297
_cell_length_c 16.338
_cell_angle_alpha 63.269
_cell_angle_beta 79.284
_cell_angle_gamma 100.929
_space_group_name_H-M_alt 'P 1'
_space_group_name_Hall 'P 1'
loop_
    _symmetry_equiv_pos_as_xyz
    x,y,z
loop_
    _atom_site_label
    _atom_site_type_symbol
    _atom_site_fract_x
    _atom_site_fract_y
    _atom_site_fract_z
    _atom_site_occupancy
    Fe0     Fe   0.75001   0.99999   0.49997   1.000
    Fe1     Fe   0.00000   0.50001   0.49997   1.000
    Fe2     Fe   0.50001   0.50001   0.49997   1.000
    Fe3     Fe   0.25001   0.49998   0.99998   1.000
    Fe4     Fe   0.75002   0.49999   0.99998   1.000
    Fe5     Fe   0.25002   0.99999   0.49998   1.000
