# CIF file generated by openbabel 2.4.90, see http://openbabel.sf.net
data_I
_chemical_name_common ''
_cell_length_a 18.538
_cell_length_b 16.297
_cell_length_c 16.338
_cell_angle_alpha 63.269
_cell_angle_beta 79.284
_cell_angle_gamma 100.929
_space_group_name_H-M_alt 'P 1'
_space_group_name_Hall 'P 1'
loop_
    _symmetry_equiv_pos_as_xyz
    x,y,z
loop_
    _atom_site_label
    _atom_site_type_symbol
    _atom_site_fract_x
    _atom_site_fract_y
    _atom_site_fract_z
    _atom_site_occupancy
    N0      N    0.86670   0.58076   0.53329   1.000
    N1      N    0.13363   0.53339   0.88493   1.000
    N2      N    0.57634   0.88516   0.58128   1.000
    N3      N    0.36640   0.46660   0.11500   1.000
    N4      N    0.13333   0.41925   0.46667   1.000
    N5      N    0.07635   0.88516   0.58128   1.000
    N6      N    0.63364   0.53339   0.88494   1.000
    N7      N    0.86641   0.46661   0.11498   1.000
    N8      N    0.42368   0.11483   0.41867   1.000
    N9      N    0.63333   0.41925   0.46665   1.000
    N10     N    0.36670   0.58077   0.53329   1.000
    N11     N    0.92368   0.11482   0.41866   1.000
    Zr12    Zr   0.25002   0.99999   0.49998   1.000
    O13     O    0.23607   0.06311   0.49897   1.000
    O14     O    0.26396   0.93688   0.50099   1.000
    Zr15    Zr   0.75001   0.99999   0.49997   1.000
    O16     O    0.73606   0.06311   0.49896   1.000
    O17     O    0.76395   0.93688   0.50098   1.000
    Zr18    Zr   0.00000   0.50001   0.49997   1.000
    O19     O    0.98544   0.49903   0.43801   1.000
    O20     O    0.01457   0.50099   0.56191   1.000
    Zr21    Zr   0.50001   0.50001   0.49997   1.000
    O22     O    0.51459   0.50099   0.56192   1.000
    O23     O    0.48544   0.49902   0.43802   1.000
    Zr24    Zr   0.75002   0.49999   0.99998   1.000
    O25     O    0.70439   0.43800   0.06301   1.000
    O26     O    0.79565   0.56198   0.93694   1.000
    Zr27    Zr   0.25001   0.49998   0.99998   1.000
    O28     O    0.20438   0.43799   0.06301   1.000
    O29     O    0.29564   0.56198   0.93694   1.000
    O30     O    0.71133   0.99244   0.47905   1.000
    O31     O    0.78869   0.00754   0.52089   1.000
    O32     O    0.21517   0.52853   0.99219   1.000
    O33     O    0.28485   0.47145   0.00777   1.000
    O34     O    0.04902   0.52122   0.47140   1.000
    O35     O    0.95100   0.47879   0.52854   1.000
    O36     O    0.54903   0.52122   0.47140   1.000
    O37     O    0.21134   0.99244   0.47906   1.000
    O38     O    0.28869   0.00755   0.52090   1.000
    O39     O    0.71518   0.52853   0.99218   1.000
    O40     O    0.78486   0.47145   0.00777   1.000
    O41     O    0.45100   0.47879   0.52854   1.000
loop_
    _geom_bond_atom_site_label_1
    _geom_bond_atom_site_label_2
    _geom_bond_distance
    _geom_bond_site_symmetry_2
    _ccdc_geom_bond_type
    Zr12   O13       1.10112  1_565   S
    N4     O13       6.27697      .   S
    Zr12   O14       1.10101      .   S
    N10    O14       6.27672      .   S
    Zr15   O16       1.10111  1_565   S
    N9     O16       6.27692      .   S
    Zr15   O17       1.10101      .   S
    N0     O17       6.27677      .   S
    Zr18   O19       1.10106  1_455   S
    N7     O19       6.27678      .   S
    Zr18   O20       1.10091      .   S
    N1     O20       6.27682      .   S
    Zr21   O22       1.10094      .   S
    N6     O22       6.27693      .   S
    Zr21   O23       1.10098      .   S
    N3     O23       6.27685      .   S
    Zr24   O25       1.10128  1_556   S
    N8     O25       6.27803      .   S
    Zr24   O26       1.10129      .   S
    N5     O26       6.27803  1_455   S
    Zr27   O28       1.10126  1_556   S
    N11    O28       6.27791  1_655   S
    Zr27   O29       1.10132      .   S
    N2     O29       6.27805      .   S
    Zr15   O30       0.86118      .   S
    N2     O30       2.50364      .   S
    Zr15   O31       0.86117  1_565   S
    N11    O31       2.50365      .   S
    Zr27   O32       0.86080      .   S
    N1     O32       2.50343      .   S
    Zr27   O33       0.86081  1_556   S
    N3     O33       2.50337      .   S
    Zr18   O34       0.86083      .   S
    N4     O34       2.50334      .   S
    Zr18   O35       0.86063  1_455   S
    N0     O35       2.50303      .   S
    N9     O36       2.50326      .   S
    Zr21   O36       0.86077      .   S
    Zr12   O37       0.86120      .   S
    N5     O37       2.50365      .   S
    Zr12   O38       0.86115  1_565   S
    N8     O38       2.50363      .   S
    Zr24   O39       0.86081      .   S
    N6     O39       2.50332      .   S
    Zr24   O40       0.86080  1_556   S
    N7     O40       2.50318      .   S
    Zr21   O41       0.86075      .   S
    N10    O41       2.50321      .   S
