# CIF file generated by openbabel 2.4.90, see http://openbabel.sf.net
data_I
_chemical_name_common ''
_cell_length_a 18.538
_cell_length_b 16.297
_cell_length_c 16.338
_cell_angle_alpha 63.269
_cell_angle_beta 79.284
_cell_angle_gamma 100.929
_space_group_name_H-M_alt 'P 1'
_space_group_name_Hall 'P 1'
loop_
    _symmetry_equiv_pos_as_xyz
    x,y,z
loop_
    _atom_site_label
    _atom_site_type_symbol
    _atom_site_fract_x
    _atom_site_fract_y
    _atom_site_fract_z
    _atom_site_occupancy
    C0      C    0.25002   0.99999   0.49998   1.000
    C1      C    0.75001   0.99999   0.49997   1.000
    C2      C    0.00000   0.50001   0.49997   1.000
    C3      C    0.50001   0.50001   0.49997   1.000
    C4      C    0.25001   0.49998   0.99998   1.000
    C5      C    0.75002   0.49999   0.99998   1.000
    C6      C    0.04421   0.97720   0.34636   1.000
    C7      C    0.54420   0.97719   0.34636   1.000
    C8      C    0.12543   0.09950   0.17371   1.000
    C9      C    0.62542   0.09949   0.17371   1.000
    C10     C    0.26606   0.17909   0.14156   1.000
    C11     C    0.76605   0.17908   0.14155   1.000
    C12     C    0.31982   0.13380   0.27966   1.000
    C13     C    0.81981   0.13379   0.27964   1.000
    C14     C    0.39284   0.72577   0.64112   1.000
    C15     C    0.89287   0.72573   0.64113   1.000
    C16     C    0.28639   0.59527   0.78492   1.000
    C17     C    0.78642   0.59524   0.78493   1.000
    C18     C    0.38609   0.65335   0.96853   1.000
    C19     C    0.88609   0.65338   0.96854   1.000
    C20     C    0.49946   0.78110   0.83169   1.000
    C21     C    0.99946   0.78113   0.83169   1.000
    C22     C    0.21820   0.34439   0.67750   1.000
    C23     C    0.71821   0.34437   0.67751   1.000
    C24     C    0.21404   0.17159   0.72804   1.000
    C25     C    0.71405   0.17158   0.72803   1.000
    C26     C    0.33874   0.14027   0.68029   1.000
    C27     C    0.83875   0.14027   0.68026   1.000
    C28     C    0.46085   0.27928   0.58713   1.000
    C29     C    0.96085   0.27929   0.58710   1.000
    C30     C    0.21345   0.64009   0.63327   1.000
    C31     C    0.71346   0.64008   0.63329   1.000
    C32     C    0.17914   0.78412   0.62031   1.000
    C33     C    0.67913   0.78411   0.62031   1.000
    C34     C    0.36933   0.96909   0.37751   1.000
    C35     C    0.86931   0.96908   0.37750   1.000
    C36     C    0.41394   0.83204   0.38610   1.000
    C37     C    0.91393   0.83203   0.38610   1.000
    C38     C    0.05542   0.67611   0.97650   1.000
    C39     C    0.55543   0.67612   0.97650   1.000
    C40     C    0.07568   0.72637   0.09856   1.000
    C41     C    0.57570   0.72639   0.09850   1.000
    C42     C    0.17720   0.67980   0.17761   1.000
    C43     C    0.67722   0.67983   0.17759   1.000
    C44     C    0.25391   0.58764   0.13226   1.000
    C45     C    0.75392   0.58765   0.13225   1.000
    C46     C    0.02991   0.63331   0.72513   1.000
    C47     C    0.52986   0.63325   0.72519   1.000
    C48     C    0.48883   0.62022   0.59458   1.000
    C49     C    0.98889   0.62027   0.59452   1.000
    C50     C    0.05901   0.37741   0.65373   1.000
    C51     C    0.55909   0.37746   0.65368   1.000
    C52     C    0.10820   0.38613   0.78170   1.000
    C53     C    0.60829   0.38619   0.78170   1.000
    C54     C    0.45582   0.02277   0.65360   1.000
    C55     C    0.95581   0.02277   0.65359   1.000
    C56     C    0.37459   0.90048   0.82625   1.000
    C57     C    0.87459   0.90049   0.82620   1.000
    C58     C    0.23396   0.82091   0.85841   1.000
    C59     C    0.73396   0.82092   0.85840   1.000
    C60     C    0.18020   0.86621   0.72030   1.000
    C61     C    0.68019   0.86622   0.72030   1.000
    C62     C    0.10717   0.27418   0.35883   1.000
    C63     C    0.60719   0.27419   0.35884   1.000
    C64     C    0.21362   0.40468   0.21504   1.000
    C65     C    0.71364   0.40469   0.21504   1.000
    C66     C    0.11393   0.34662   0.03141   1.000
    C67     C    0.61393   0.34663   0.03143   1.000
    C68     C    0.00056   0.21888   0.16825   1.000
    C69     C    0.50056   0.21888   0.16827   1.000
    C70     C    0.28183   0.65562   0.32248   1.000
    C71     C    0.78183   0.65563   0.32245   1.000
    C72     C    0.28599   0.82842   0.27193   1.000
    C73     C    0.78599   0.82842   0.27191   1.000
    C74     C    0.16129   0.85975   0.31964   1.000
    C75     C    0.66129   0.85974   0.31966   1.000
    C76     C    0.03918   0.72073   0.41279   1.000
    C77     C    0.53918   0.72072   0.41282   1.000
    C78     C    0.28658   0.35992   0.36670   1.000
    C79     C    0.78659   0.35992   0.36669   1.000
    C80     C    0.32090   0.21589   0.37966   1.000
    C81     C    0.82090   0.21589   0.37965   1.000
    C82     C    0.13069   0.03092   0.62244   1.000
    C83     C    0.63069   0.03092   0.62242   1.000
    C84     C    0.08608   0.16797   0.61385   1.000
    C85     C    0.58608   0.16798   0.61380   1.000
    C86     C    0.44465   0.32393   0.02340   1.000
    C87     C    0.94464   0.32391   0.02342   1.000
    C88     C    0.42437   0.27366   0.90135   1.000
    C89     C    0.92435   0.27360   0.90141   1.000
    C90     C    0.32282   0.32017   0.82235   1.000
    C91     C    0.82279   0.32011   0.82241   1.000
    C92     C    0.24610   0.41231   0.86772   1.000
    C93     C    0.74608   0.41228   0.86775   1.000
    C94     C    0.47018   0.36675   0.27470   1.000
    C95     C    0.97022   0.36679   0.27472   1.000
    C96     C    0.01124   0.37982   0.40530   1.000
    C97     C    0.51120   0.37979   0.40537   1.000
    C98     C    0.44094   0.62255   0.34626   1.000
    C99     C    0.94093   0.62254   0.34627   1.000
    C100    C    0.39175   0.61382   0.21823   1.000
    C101    C    0.89174   0.61381   0.21824   1.000
    C102    C    0.09907   0.92793   0.50139   1.000
    C103    C    0.59906   0.92793   0.50139   1.000
    C104    C    0.02368   0.83450   0.64180   1.000
    C105    C    0.52367   0.83451   0.64180   1.000
    C106    C    0.13957   0.99227   0.40034   1.000
    C107    C    0.63956   0.99227   0.40033   1.000
    C108    C    0.10566   0.01312   0.32682   1.000
    C109    C    0.60564   0.01311   0.32681   1.000
    C110    C    0.15075   0.08060   0.23228   1.000
    C111    C    0.65073   0.08059   0.23227   1.000
    C112    C    0.22870   0.12500   0.21417   1.000
    C113    C    0.72869   0.12499   0.21416   1.000
    C114    C    0.25927   0.10082   0.29061   1.000
    C115    C    0.75926   0.10081   0.29060   1.000
    C116    C    0.45654   0.76412   0.72381   1.000
    C117    C    0.95656   0.76411   0.72382   1.000
    C118    C    0.39359   0.71142   0.71271   1.000
    C119    C    0.89361   0.71140   0.71271   1.000
    C120    C    0.33368   0.63878   0.79306   1.000
    C121    C    0.83370   0.63876   0.79307   1.000
    C122    C    0.38977   0.67064   0.89510   1.000
    C123    C    0.88977   0.67065   0.89511   1.000
    C124    C    0.45256   0.74241   0.81843   1.000
    C125    C    0.95256   0.74242   0.81843   1.000
    C126    C    0.34983   0.50062   0.57082   1.000
    C127    C    0.84983   0.50061   0.57082   1.000
    C128    C    0.34407   0.64132   0.52329   1.000
    C129    C    0.84407   0.64131   0.52330   1.000
    C130    C    0.34029   0.39930   0.60799   1.000
    C131    C    0.84029   0.39929   0.60800   1.000
    C132    C    0.27001   0.32522   0.66100   1.000
    C133    C    0.77002   0.32521   0.66100   1.000
    C134    C    0.26833   0.23058   0.68820   1.000
    C135    C    0.76834   0.23057   0.68819   1.000
    C136    C    0.33731   0.21291   0.66174   1.000
    C137    C    0.83732   0.21292   0.66172   1.000
    C138    C    0.40570   0.28986   0.60925   1.000
    C139    C    0.90570   0.28986   0.60922   1.000
    C140    C    0.31785   0.72342   0.51170   1.000
    C141    C    0.81784   0.72341   0.51171   1.000
    C142    C    0.24975   0.71203   0.57587   1.000
    C143    C    0.74974   0.71203   0.57588   1.000
    C144    C    0.23016   0.79251   0.56838   1.000
    C145    C    0.73016   0.79251   0.56838   1.000
    C146    C    0.33653   0.89530   0.43383   1.000
    C147    C    0.83652   0.89529   0.43382   1.000
    C148    C    0.36080   0.81851   0.43840   1.000
    C149    C    0.86079   0.81849   0.43847   1.000
    C150    C    0.13513   0.57078   0.92735   1.000
    C151    C    0.63515   0.57079   0.92735   1.000
    C152    C    0.10614   0.52334   0.83440   1.000
    C153    C    0.60615   0.52334   0.83443   1.000
    C154    C    0.14369   0.60777   0.99132   1.000
    C155    C    0.64369   0.60776   0.99133   1.000
    C156    C    0.09919   0.66010   0.01218   1.000
    C157    C    0.59920   0.66012   0.01217   1.000
    C158    C    0.11067   0.68717   0.07949   1.000
    C159    C    0.61069   0.68718   0.07948   1.000
    C160    C    0.16679   0.66131   0.12362   1.000
    C161    C    0.66681   0.66134   0.12360   1.000
    C162    C    0.20962   0.60943   0.09941   1.000
    C163    C    0.70964   0.60945   0.09940   1.000
    C164    C    0.07416   0.51168   0.76409   1.000
    C165    C    0.57417   0.51168   0.76409   1.000
    C166    C    0.03774   0.57587   0.71101   1.000
    C167    C    0.53772   0.57584   0.71104   1.000
    C168    C    0.01429   0.56834   0.63827   1.000
    C169    C    0.51427   0.56831   0.63831   1.000
    C170    C    0.05411   0.43374   0.67082   1.000
    C171    C    0.55416   0.43376   0.67079   1.000
    C172    C    0.08086   0.43845   0.74273   1.000
    C173    C    0.58091   0.43848   0.74270   1.000
    C174    C    0.40096   0.07204   0.49857   1.000
    C175    C    0.90096   0.07205   0.49855   1.000
    C176    C    0.47635   0.16547   0.35816   1.000
    C177    C    0.97635   0.16546   0.35815   1.000
    C178    C    0.36046   0.00771   0.59962   1.000
    C179    C    0.86046   0.00771   0.59961   1.000
    C180    C    0.39437   0.98686   0.67314   1.000
    C181    C    0.89437   0.98686   0.67313   1.000
    C182    C    0.34928   0.91939   0.76768   1.000
    C183    C    0.84928   0.91940   0.76767   1.000
    C184    C    0.27132   0.87500   0.78579   1.000
    C185    C    0.77132   0.87501   0.78578   1.000
    C186    C    0.24075   0.89918   0.70930   1.000
    C187    C    0.74075   0.89919   0.70934   1.000
    C188    C    0.04347   0.23585   0.27613   1.000
    C189    C    0.54348   0.23586   0.27614   1.000
    C190    C    0.10643   0.28854   0.28720   1.000
    C191    C    0.60645   0.28854   0.28725   1.000
    C192    C    0.16634   0.36118   0.20690   1.000
    C193    C    0.66635   0.36119   0.20690   1.000
    C194    C    0.11025   0.32933   0.10484   1.000
    C195    C    0.61025   0.32934   0.10480   1.000
    C196    C    0.04746   0.25756   0.18151   1.000
    C197    C    0.54746   0.25757   0.18153   1.000
    C198    C    0.15020   0.49939   0.42915   1.000
    C199    C    0.65020   0.49939   0.42913   1.000
    C200    C    0.15596   0.35869   0.47667   1.000
    C201    C    0.65596   0.35870   0.47665   1.000
    C202    C    0.15974   0.60072   0.39197   1.000
    C203    C    0.65975   0.60072   0.39195   1.000
    C204    C    0.23002   0.67479   0.33897   1.000
    C205    C    0.73002   0.67479   0.33895   1.000
    C206    C    0.23170   0.76943   0.31176   1.000
    C207    C    0.73170   0.76943   0.31175   1.000
    C208    C    0.16271   0.78710   0.33820   1.000
    C209    C    0.66272   0.78710   0.33821   1.000
    C210    C    0.09433   0.71015   0.39068   1.000
    C211    C    0.59433   0.71015   0.39070   1.000
    C212    C    0.18218   0.27659   0.48826   1.000
    C213    C    0.68219   0.27659   0.48824   1.000
    C214    C    0.25029   0.28797   0.42409   1.000
    C215    C    0.75029   0.28797   0.42408   1.000
    C216    C    0.26987   0.20749   0.43159   1.000
    C217    C    0.76987   0.20749   0.43158   1.000
    C218    C    0.16350   0.10470   0.56613   1.000
    C219    C    0.66349   0.10470   0.56611   1.000
    C220    C    0.13923   0.18150   0.56148   1.000
    C221    C    0.63923   0.18151   0.56146   1.000
    C222    C    0.36490   0.42921   0.07259   1.000
    C223    C    0.86491   0.42922   0.07259   1.000
    C224    C    0.39388   0.47665   0.16551   1.000
    C225    C    0.89390   0.47667   0.16551   1.000
    C226    C    0.35635   0.39224   0.00861   1.000
    C227    C    0.85635   0.39223   0.00862   1.000
    C228    C    0.40086   0.33992   0.98774   1.000
    C229    C    0.90085   0.33989   0.98777   1.000
    C230    C    0.38937   0.31284   0.92044   1.000
    C231    C    0.88935   0.31280   0.92048   1.000
    C232    C    0.33323   0.33867   0.87633   1.000
    C233    C    0.83321   0.33862   0.87638   1.000
    C234    C    0.29039   0.39054   0.90056   1.000
    C235    C    0.79038   0.39051   0.90059   1.000
    C236    C    0.42588   0.48832   0.23585   1.000
    C237    C    0.92589   0.48834   0.23583   1.000
    C238    C    0.46232   0.42417   0.28890   1.000
    C239    C    0.96235   0.42419   0.28888   1.000
    C240    C    0.48577   0.43170   0.36160   1.000
    C241    C    0.98580   0.43173   0.36161   1.000
    C242    C    0.44588   0.56624   0.32914   1.000
    C243    C    0.94588   0.56625   0.32910   1.000
    C244    C    0.41913   0.56153   0.25720   1.000
    C245    C    0.91913   0.56153   0.25724   1.000
    C246    C    0.14110   0.92592   0.56195   1.000
    C247    C    0.64109   0.92592   0.56194   1.000
    C248    C    0.09258   0.86649   0.65315   1.000
    C249    C    0.59257   0.86649   0.65314   1.000
    C250    C    0.02532   0.87093   0.54810   1.000
    C251    C    0.52531   0.87094   0.54815   1.000
    C252    C    0.21628   0.03554   0.38293   1.000
    C253    C    0.71627   0.03554   0.38292   1.000
    C254    C    0.33074   0.61611   0.88480   1.000
    C255    C    0.83075   0.61611   0.88480   1.000
    C256    C    0.42178   0.56164   0.51170   1.000
    C257    C    0.92178   0.56164   0.51174   1.000
    C258    C    0.41846   0.65302   0.47959   1.000
    C259    C    0.91846   0.65301   0.47960   1.000
    C260    C    0.29935   0.54724   0.58104   1.000
    C261    C    0.79935   0.54723   0.58100   1.000
    C262    C    0.40837   0.38229   0.58201   1.000
    C263    C    0.90838   0.38229   0.58200   1.000
    C264    C    0.27286   0.88471   0.49910   1.000
    C265    C    0.77285   0.88470   0.49910   1.000
    C266    C    0.17807   0.51203   0.92580   1.000
    C267    C    0.67807   0.51203   0.92581   1.000
    C268    C    0.15906   0.47996   0.86668   1.000
    C269    C    0.65907   0.47997   0.86668   1.000
    C270    C    0.08973   0.58083   0.87043   1.000
    C271    C    0.58974   0.58083   0.87044   1.000
    C272    C    0.19903   0.58222   0.03443   1.000
    C273    C    0.69904   0.58222   0.03440   1.000
    C274    C    0.02262   0.49901   0.61588   1.000
    C275    C    0.52264   0.49901   0.61588   1.000
    C276    C    0.35893   0.07408   0.43801   1.000
    C277    C    0.85893   0.07406   0.43800   1.000
    C278    C    0.40745   0.13350   0.34681   1.000
    C279    C    0.90744   0.13350   0.34680   1.000
    C280    C    0.47471   0.12903   0.45180   1.000
    C281    C    0.97470   0.12902   0.45179   1.000
    C282    C    0.28374   0.96445   0.61703   1.000
    C283    C    0.78374   0.96445   0.61702   1.000
    C284    C    0.16928   0.38386   0.11513   1.000
    C285    C    0.66929   0.38387   0.11513   1.000
    C286    C    0.07825   0.43837   0.48822   1.000
    C287    C    0.57825   0.43837   0.48822   1.000
    C288    C    0.08156   0.34700   0.52036   1.000
    C289    C    0.58157   0.34699   0.52034   1.000
    C290    C    0.20068   0.45277   0.41893   1.000
    C291    C    0.70068   0.45277   0.41890   1.000
    C292    C    0.09165   0.61772   0.41793   1.000
    C293    C    0.59166   0.61772   0.41793   1.000
    C294    C    0.22717   0.11529   0.50085   1.000
    C295    C    0.72717   0.11529   0.50084   1.000
    C296    C    0.32196   0.48796   0.07414   1.000
    C297    C    0.82197   0.48797   0.07414   1.000
    C298    C    0.34095   0.52000   0.13328   1.000
    C299    C    0.84096   0.52002   0.13328   1.000
    C300    C    0.41031   0.41918   0.12949   1.000
    C301    C    0.91032   0.41919   0.12940   1.000
    C302    C    0.30099   0.41776   0.96553   1.000
    C303    C    0.80099   0.41775   0.96553   1.000
    C304    C    0.47740   0.50099   0.38406   1.000
    C305    C    0.97740   0.50100   0.38400   1.000
    O306    O    0.36062   0.41072   0.04060   1.000
    O307    O    0.32867   0.40499   0.98707   1.000
    O308    O    0.37861   0.36608   0.99817   1.000
    O309    O    0.86063   0.41073   0.04061   1.000
    O310    O    0.82867   0.40499   0.98708   1.000
    O311    O    0.87860   0.36606   0.99819   1.000
    O312    O    0.60495   0.67365   0.04582   1.000
    O313    O    0.57731   0.66812   0.99433   1.000
    O314    O    0.62145   0.63394   0.00175   1.000
    O315    O    0.10493   0.67363   0.04584   1.000
    O316    O    0.07730   0.66811   0.99434   1.000
    O317    O    0.12144   0.63394   0.00175   1.000
    O318    O    0.42275   0.33192   0.00557   1.000
    O319    O    0.92275   0.33190   0.00560   1.000
    O320    O    0.11209   0.33798   0.06813   1.000
    O321    O    0.61209   0.33799   0.06811   1.000
    O322    O    0.70434   0.59583   0.06690   1.000
    O323    O    0.67137   0.59499   0.01286   1.000
    O324    O    0.72453   0.54111   0.01719   1.000
    O325    O    0.20433   0.59582   0.06692   1.000
    O326    O    0.17136   0.59499   0.01288   1.000
    O327    O    0.22452   0.54110   0.01721   1.000
    O328    O    0.84344   0.45859   0.07337   1.000
    O329    O    0.88762   0.42421   0.10100   1.000
    O330    O    0.34343   0.45858   0.07337   1.000
    O331    O    0.38760   0.42420   0.10104   1.000
    O332    O    0.83147   0.50399   0.10371   1.000
    O333    O    0.78599   0.49398   0.03706   1.000
    O334    O    0.33145   0.50398   0.10371   1.000
    O335    O    0.28598   0.49397   0.03706   1.000
    O336    O    0.59319   0.70679   0.08899   1.000
    O337    O    0.63875   0.67426   0.10154   1.000
    O338    O    0.09317   0.70677   0.08902   1.000
    O339    O    0.13873   0.67424   0.10156   1.000
    O340    O    0.68823   0.63539   0.11150   1.000
    O341    O    0.73178   0.59855   0.11582   1.000
    O342    O    0.18821   0.63537   0.11151   1.000
    O343    O    0.23177   0.59853   0.11583   1.000
    O344    O    0.63977   0.35660   0.10996   1.000
    O345    O    0.57886   0.29346   0.14316   1.000
    O346    O    0.13976   0.35660   0.10998   1.000
    O347    O    0.07885   0.29345   0.14317   1.000
    O348    O    0.66782   0.37253   0.16101   1.000
    O349    O    0.70965   0.44193   0.05755   1.000
    O350    O    0.16781   0.37252   0.16101   1.000
    O351    O    0.20964   0.44192   0.05755   1.000
    O352    O    0.67202   0.67059   0.15059   1.000
    O353    O    0.17200   0.67056   0.15061   1.000
    O354    O    0.90211   0.44793   0.14745   1.000
    O355    O    0.40210   0.44792   0.14750   1.000
    O356    O    0.36742   0.49833   0.14940   1.000
    O357    O    0.86743   0.49834   0.14940   1.000
    O358    O    0.74737   0.15204   0.17786   1.000
    O359    O    0.24738   0.15205   0.17786   1.000
    O360    O    0.90989   0.48250   0.20067   1.000
    O361    O    0.40988   0.48249   0.20068   1.000
    O362    O    0.02401   0.23822   0.17488   1.000
    O363    O    0.52401   0.23823   0.17490   1.000
    O364    O    0.13809   0.09005   0.20300   1.000
    O365    O    0.63808   0.09004   0.20299   1.000
    O366    O    0.04547   0.24671   0.22882   1.000
    O367    O    0.54548   0.24671   0.22883   1.000
    O368    O    0.18998   0.38293   0.21097   1.000
    O369    O    0.13638   0.32486   0.24705   1.000
    O370    O    0.69000   0.38294   0.21097   1.000
    O371    O    0.63640   0.32486   0.24708   1.000
    O372    O    0.68971   0.10279   0.22321   1.000
    O373    O    0.74398   0.11290   0.25238   1.000
    O374    O    0.18973   0.10280   0.22322   1.000
    O375    O    0.24399   0.11291   0.25239   1.000
    O376    O    0.40544   0.58767   0.23771   1.000
    O377    O    0.90543   0.58767   0.23774   1.000
    O378    O    0.62819   0.04685   0.27954   1.000
    O379    O    0.12820   0.04686   0.27955   1.000
    O380    O    0.92251   0.52493   0.24654   1.000
    O381    O    0.94412   0.45627   0.26236   1.000
    O382    O    0.42250   0.52492   0.24652   1.000
    O383    O    0.44410   0.45624   0.26237   1.000
    O384    O    0.43250   0.56389   0.29317   1.000
    O385    O    0.93250   0.56389   0.29317   1.000
    O386    O    0.75885   0.79893   0.29183   1.000
    O387    O    0.25885   0.79893   0.29185   1.000
    O388    O    0.46625   0.39546   0.28180   1.000
    O389    O    0.96629   0.39549   0.28180   1.000
    O390    O    0.07495   0.26219   0.28166   1.000
    O391    O    0.00991   0.20066   0.31714   1.000
    O392    O    0.57496   0.26220   0.28170   1.000
    O393    O    0.50992   0.20067   0.31715   1.000
    O394    O    0.78954   0.11730   0.28512   1.000
    O395    O    0.28954   0.11731   0.28514   1.000
    O396    O    0.10680   0.28136   0.32301   1.000
    O397    O    0.60682   0.28136   0.32304   1.000
    O398    O    0.97407   0.42796   0.32525   1.000
    O399    O    0.47404   0.42793   0.32525   1.000
    O400    O    0.73777   0.06817   0.33676   1.000
    O401    O    0.23778   0.06818   0.33677   1.000
    O402    O    0.69721   0.77826   0.32498   1.000
    O403    O    0.73086   0.72211   0.32535   1.000
    O404    O    0.19721   0.77827   0.32498   1.000
    O405    O    0.23086   0.72211   0.32537   1.000
    O406    O    0.16200   0.82343   0.32892   1.000
    O407    O    0.66201   0.82342   0.32893   1.000
    O408    O    0.75593   0.66521   0.33070   1.000
    O409    O    0.25593   0.66521   0.33072   1.000
    O410    O    0.57492   0.99515   0.33658   1.000
    O411    O    0.62260   0.00269   0.36357   1.000
    O412    O    0.07493   0.99516   0.33659   1.000
    O413    O    0.12261   0.00270   0.36358   1.000
    O414    O    0.94341   0.59439   0.33769   1.000
    O415    O    0.96164   0.53362   0.35655   1.000
    O416    O    0.44341   0.59440   0.33770   1.000
    O417    O    0.46164   0.53362   0.35660   1.000
    O418    O    0.12852   0.74863   0.36444   1.000
    O419    O    0.62853   0.74862   0.36445   1.000
    O420    O    0.69488   0.63775   0.36545   1.000
    O421    O    0.19488   0.63775   0.36547   1.000
    O422    O    0.94190   0.14948   0.35247   1.000
    O423    O    0.88319   0.10378   0.39240   1.000
    O424    O    0.44190   0.14949   0.35248   1.000
    O425    O    0.38319   0.10379   0.39241   1.000
    O426    O    0.97553   0.14724   0.40497   1.000
    O427    O    0.47553   0.14725   0.40498   1.000
    O428    O    0.48158   0.46635   0.37283   1.000
    O429    O    0.49849   0.40574   0.38348   1.000
    O430    O    0.98160   0.46636   0.37280   1.000
    O431    O    0.99852   0.40577   0.38345   1.000
    O432    O    0.76844   0.32395   0.39539   1.000
    O433    O    0.26843   0.32395   0.39539   1.000
    O434    O    0.85292   0.93219   0.40566   1.000
    O435    O    0.35293   0.93220   0.40567   1.000
    O436    O    0.79539   0.21169   0.40562   1.000
    O437    O    0.29538   0.21169   0.40562   1.000
    O438    O    0.67792   0.01391   0.39162   1.000
    O439    O    0.73314   0.01776   0.44144   1.000
    O440    O    0.17792   0.01391   0.39163   1.000
    O441    O    0.23315   0.01777   0.44145   1.000
    O442    O    0.98870   0.50050   0.44199   1.000
    O443    O    0.48871   0.50050   0.44202   1.000
    O444    O    0.38737   0.82527   0.41225   1.000
    O445    O    0.88736   0.82526   0.41229   1.000
    O446    O    0.06675   0.71544   0.40174   1.000
    O447    O    0.09299   0.66394   0.40431   1.000
    O448    O    0.56676   0.71544   0.40176   1.000
    O449    O    0.59299   0.66393   0.40432   1.000
    O450    O    0.62570   0.60922   0.40494   1.000
    O451    O    0.65497   0.55006   0.41054   1.000
    O452    O    0.12570   0.60922   0.40495   1.000
    O453    O    0.15497   0.55005   0.41056   1.000
    O454    O    0.61931   0.96010   0.45086   1.000
    O455    O    0.11932   0.96010   0.45087   1.000
    O456    O    0.54584   0.55886   0.45895   1.000
    O457    O    0.04583   0.55886   0.45895   1.000
    O458    O    0.67544   0.47608   0.42401   1.000
    O459    O    0.67832   0.40574   0.44777   1.000
    O460    O    0.17544   0.47608   0.42404   1.000
    O461    O    0.17832   0.40573   0.44780   1.000
    O462    O    0.76008   0.24773   0.42783   1.000
    O463    O    0.71624   0.28228   0.45616   1.000
    O464    O    0.26008   0.24773   0.42784   1.000
    O465    O    0.21623   0.28228   0.45617   1.000
    O466    O    0.61423   0.46888   0.45867   1.000
    O467    O    0.11422   0.46888   0.45868   1.000
    O468    O    0.74852   0.16139   0.46621   1.000
    O469    O    0.24852   0.16139   0.46622   1.000
    O470    O    0.84865   0.85689   0.43614   1.000
    O471    O    0.80468   0.89000   0.46646   1.000
    O472    O    0.34866   0.85690   0.43612   1.000
    O473    O    0.30469   0.89001   0.46646   1.000
    O474    O    0.87994   0.07305   0.46827   1.000
    O475    O    0.80447   0.03702   0.46898   1.000
    O476    O    0.37995   0.07306   0.46829   1.000
    O477    O    0.30447   0.03704   0.46899   1.000
    O478    O    0.33932   0.77096   0.47505   1.000
    O479    O    0.83932   0.77095   0.47509   1.000
    O480    O    0.93783   0.10053   0.47517   1.000
    O481    O    0.43784   0.10054   0.47519   1.000
    O482    O    0.66907   0.31764   0.48245   1.000
    O483    O    0.61876   0.35285   0.49849   1.000
    O484    O    0.16907   0.31764   0.48246   1.000
    O485    O    0.11876   0.35284   0.49851   1.000
    O486    O    0.42012   0.60733   0.49565   1.000
    O487    O    0.38127   0.64717   0.50144   1.000
    O488    O    0.92012   0.60733   0.49567   1.000
    O489    O    0.88127   0.64716   0.50145   1.000
    O490    O    0.53913   0.46919   0.49409   1.000
    O491    O    0.57991   0.39268   0.50428   1.000
    O492    O    0.03912   0.46919   0.49409   1.000
    O493    O    0.07991   0.39268   0.50429   1.000
    O494    O    0.66071   0.22905   0.52485   1.000
    O495    O    0.16070   0.22905   0.52487   1.000
    O496    O    0.88071   0.03988   0.54908   1.000
    O497    O    0.38071   0.03988   0.54909   1.000
    O498    O    0.26144   0.94235   0.49954   1.000
    O499    O    0.25151   0.83861   0.53374   1.000
    O500    O    0.76143   0.94235   0.49954   1.000
    O501    O    0.75150   0.83861   0.53374   1.000
    O502    O    0.73859   0.05764   0.50040   1.000
    O503    O    0.69555   0.96296   0.53095   1.000
    O504    O    0.76687   0.98222   0.55849   1.000
    O505    O    0.96089   0.53082   0.50586   1.000
    O506    O    0.95419   0.44115   0.54098   1.000
    O507    O    0.01131   0.49951   0.55793   1.000
    O508    O    0.46090   0.53082   0.50584   1.000
    O509    O    0.45419   0.44115   0.54099   1.000
    O510    O    0.51132   0.49951   0.55793   1.000
    O511    O    0.23859   0.05764   0.50041   1.000
    O512    O    0.19556   0.96296   0.53097   1.000
    O513    O    0.26688   0.98222   0.55850   1.000
    O514    O    0.69533   0.11000   0.53347   1.000
    O515    O    0.19533   0.11000   0.53349   1.000
    O516    O    0.06220   0.89943   0.52475   1.000
    O517    O    0.12008   0.92693   0.53167   1.000
    O518    O    0.56219   0.89943   0.52477   1.000
    O519    O    0.62007   0.92692   0.53167   1.000
    O520    O    0.33096   0.68237   0.51750   1.000
    O521    O    0.28380   0.71773   0.54378   1.000
    O522    O    0.38580   0.53113   0.54126   1.000
    O523    O    0.83096   0.68236   0.51750   1.000
    O524    O    0.78379   0.71772   0.54380   1.000
    O525    O    0.88581   0.53112   0.54128   1.000
    O526    O    0.32171   0.59428   0.55217   1.000
    O527    O    0.82171   0.59427   0.55215   1.000
    O528    O    0.02450   0.85272   0.59495   1.000
    O529    O    0.52449   0.85272   0.59498   1.000
    O530    O    0.65136   0.14311   0.56378   1.000
    O531    O    0.61266   0.17474   0.58763   1.000
    O532    O    0.15136   0.14310   0.56380   1.000
    O533    O    0.11266   0.17474   0.58766   1.000
    O534    O    0.61683   0.89620   0.60754   1.000
    O535    O    0.11684   0.89621   0.60755   1.000
    O536    O    0.64709   0.06781   0.59427   1.000
    O537    O    0.14709   0.06781   0.59429   1.000
    O538    O    0.73995   0.75227   0.57213   1.000
    O539    O    0.70465   0.78831   0.59435   1.000
    O540    O    0.23996   0.75227   0.57212   1.000
    O541    O    0.20465   0.78831   0.59435   1.000
    O542    O    0.32459   0.52393   0.57593   1.000
    O543    O    0.34506   0.44996   0.58941   1.000
    O544    O    0.82459   0.52392   0.57591   1.000
    O545    O    0.84506   0.44995   0.58941   1.000
    O546    O    0.23160   0.67606   0.60457   1.000
    O547    O    0.73160   0.67605   0.60458   1.000
    O548    O    0.87434   0.39079   0.59500   1.000
    O549    O    0.90704   0.33608   0.59561   1.000
    O550    O    0.37433   0.39079   0.59500   1.000
    O551    O    0.40703   0.33608   0.59563   1.000
    O552    O    0.93328   0.28458   0.59816   1.000
    O553    O    0.43327   0.28457   0.59819   1.000
    O554    O    0.00159   0.59431   0.61640   1.000
    O555    O    0.50155   0.59426   0.61644   1.000
    O556    O    0.82210   0.98608   0.60831   1.000
    O557    O    0.87741   0.99728   0.63637   1.000
    O558    O    0.32210   0.98608   0.60833   1.000
    O559    O    0.37742   0.99728   0.63638   1.000
    O560    O    0.30515   0.36226   0.63450   1.000
    O561    O    0.80515   0.36225   0.63450   1.000
    O562    O    0.87151   0.25139   0.63547   1.000
    O563    O    0.37150   0.25139   0.63549   1.000
    O564    O    0.51845   0.53366   0.62710   1.000
    O565    O    0.53840   0.46639   0.64333   1.000
    O566    O    0.01846   0.53368   0.62707   1.000
    O567    O    0.03836   0.46638   0.64335   1.000
    O568    O    0.76224   0.93182   0.66318   1.000
    O569    O    0.26225   0.93182   0.66316   1.000
    O570    O    0.02602   0.57210   0.67464   1.000
    O571    O    0.52599   0.57207   0.67468   1.000
    O572    O    0.39321   0.71860   0.67691   1.000
    O573    O    0.89324   0.71857   0.67692   1.000
    O574    O    0.55812   0.85050   0.64747   1.000
    O575    O    0.49011   0.79931   0.68280   1.000
    O576    O    0.05813   0.85050   0.64748   1.000
    O577    O    0.99012   0.79930   0.68281   1.000
    O578    O    0.92509   0.00482   0.66336   1.000
    O579    O    0.42510   0.00482   0.66337   1.000
    O580    O    0.55662   0.40561   0.66223   1.000
    O581    O    0.05656   0.40558   0.66227   1.000
    O582    O    0.74411   0.33479   0.66925   1.000
    O583    O    0.76918   0.27789   0.67459   1.000
    O584    O    0.24410   0.33480   0.66925   1.000
    O585    O    0.26917   0.27790   0.67460   1.000
    O586    O    0.83803   0.17659   0.67099   1.000
    O587    O    0.80283   0.22174   0.67495   1.000
    O588    O    0.33802   0.17659   0.67101   1.000
    O589    O    0.30282   0.22175   0.67497   1.000
    O590    O    0.56753   0.43612   0.70674   1.000
    O591    O    0.06748   0.43609   0.70677   1.000
    O592    O    0.87182   0.95313   0.72040   1.000
    O593    O    0.37183   0.95312   0.72041   1.000
    O594    O    0.74119   0.20108   0.70811   1.000
    O595    O    0.24118   0.20109   0.70812   1.000
    O596    O    0.21048   0.88270   0.71480   1.000
    O597    O    0.25604   0.88709   0.74755   1.000
    O598    O    0.71047   0.88271   0.71482   1.000
    O599    O    0.75603   0.88710   0.74756   1.000
    O600    O    0.03383   0.60459   0.71807   1.000
    O601    O    0.05595   0.54378   0.73755   1.000
    O602    O    0.53379   0.60454   0.71811   1.000
    O603    O    0.55594   0.54376   0.73756   1.000
    O604    O    0.92508   0.73775   0.71827   1.000
    O605    O    0.86365   0.67508   0.75289   1.000
    O606    O    0.42506   0.73777   0.71826   1.000
    O607    O    0.36363   0.67510   0.75288   1.000
    O608    O    0.45455   0.75326   0.77112   1.000
    O609    O    0.95456   0.75327   0.77112   1.000
    O610    O    0.57754   0.47508   0.75340   1.000
    O611    O    0.59460   0.41233   0.76220   1.000
    O612    O    0.07751   0.47507   0.75341   1.000
    O613    O    0.09453   0.41229   0.76221   1.000
    O614    O    0.09015   0.51751   0.79925   1.000
    O615    O    0.59016   0.51751   0.79926   1.000
    O616    O    0.81030   0.89720   0.77672   1.000
    O617    O    0.86193   0.90995   0.79693   1.000
    O618    O    0.31030   0.89719   0.77673   1.000
    O619    O    0.36194   0.90994   0.79697   1.000
    O620    O    0.31003   0.61703   0.78899   1.000
    O621    O    0.81006   0.61700   0.78900   1.000
    O622    O    0.75264   0.84797   0.82209   1.000
    O623    O    0.25264   0.84796   0.82210   1.000
    O624    O    0.33221   0.62744   0.83893   1.000
    O625    O    0.83223   0.62743   0.83894   1.000
    O626    O    0.47601   0.76176   0.82506   1.000
    O627    O    0.42116   0.70652   0.85676   1.000
    O628    O    0.97601   0.76178   0.82506   1.000
    O629    O    0.92117   0.70654   0.85677   1.000
    O630    O    0.32803   0.32942   0.84934   1.000
    O631    O    0.82800   0.32936   0.84939   1.000
    O632    O    0.13260   0.50165   0.85054   1.000
    O633    O    0.09794   0.55209   0.85242   1.000
    O634    O    0.63261   0.50166   0.85056   1.000
    O635    O    0.59795   0.55208   0.85244   1.000
    O636    O    0.16856   0.49600   0.89624   1.000
    O637    O    0.66857   0.49600   0.89624   1.000
    O638    O    0.26824   0.40142   0.88414   1.000
    O639    O    0.76823   0.40139   0.88417   1.000
    O640    O    0.11243   0.57581   0.89889   1.000
    O641    O    0.61244   0.57581   0.89890   1.000
    O642    O    0.31181   0.36460   0.88845   1.000
    O643    O    0.36130   0.32575   0.89839   1.000
    O644    O    0.81180   0.36456   0.88848   1.000
    O645    O    0.86128   0.32571   0.89843   1.000
    O646    O    0.36025   0.64337   0.88995   1.000
    O647    O    0.29037   0.55805   0.94239   1.000
    O648    O    0.86026   0.64338   0.88995   1.000
    O649    O    0.79039   0.55805   0.94239   1.000
    O650    O    0.38793   0.66200   0.93182   1.000
    O651    O    0.88793   0.66201   0.93182   1.000
    O652    O    0.29569   0.40415   0.93305   1.000
    O653    O    0.79569   0.40413   0.93306   1.000
    O654    O    0.40687   0.29325   0.91090   1.000
    O655    O    0.90685   0.29320   0.91095   1.000
    O656    O    0.39511   0.32638   0.95409   1.000
    O657    O    0.89510   0.32635   0.95413   1.000
    O658    O    0.15660   0.54141   0.92658   1.000
    O659    O    0.21404   0.50601   0.96289   1.000
    O660    O    0.65661   0.54141   0.92658   1.000
    O661    O    0.71405   0.50601   0.96289   1.000
    O662    O    0.13941   0.58927   0.95934   1.000
    O663    O    0.63942   0.58928   0.95934   1.000
    O664    O    0.27550   0.45887   0.98275   1.000
    O665    O    0.77551   0.45887   0.98275   1.000
loop_
    _geom_bond_atom_site_label_1
    _geom_bond_atom_site_label_2
    _geom_bond_distance
    _geom_bond_site_symmetry_2
    _ccdc_geom_bond_type
    C226   O306      0.71989      .   S
    C222   O306      0.71989      .   S
    C226   O307      0.68718  1_554   S
    C302   O307      0.68718      .   S
    C226   O308      0.69781  1_554   S
    C228   O308      0.69781      .   S
    C227   O309      0.71992      .   S
    C223   O309      0.71992      .   S
    C227   O310      0.68720  1_554   S
    C303   O310      0.68720      .   S
    C227   O311      0.69780  1_554   S
    C229   O311      0.69780      .   S
    C157   O312      0.69591      .   S
    C159   O312      0.69591      .   S
    C157   O313      0.54443  1_554   S
    C39    O313      0.54443      .   S
    C157   O314      0.69781      .   S
    C155   O314      0.69781  1_556   S
    C156   O315      0.69589      .   S
    C158   O315      0.69589      .   S
    C156   O316      0.54445  1_554   S
    C38    O316      0.54445      .   S
    C156   O317      0.69783      .   S
    C154   O317      0.69783  1_556   S
    C86    O318      0.54444      .   S
    C228   O318      0.54444  1_556   S
    C87    O319      0.54441      .   S
    C229   O319      0.54441  1_556   S
    C66    O320      0.54349      .   S
    C194   O320      0.54349      .   S
    C67    O321      0.54302      .   S
    C195   O321      0.54302      .   S
    C273   O322      0.67670      .   S
    C163   O322      0.67670      .   S
    C273   O323      0.68704      .   S
    C155   O323      0.68704  1_556   S
    C273   O324      0.99571      .   S
    C5     O324      0.99571  1_556   S
    C272   O325      0.67646      .   S
    C162   O325      0.67646      .   S
    C272   O326      0.68717      .   S
    C154   O326      0.68717  1_556   S
    C272   O327      0.99584      .   S
    C4     O327      0.99584  1_556   S
    C223   O328      0.68082      .   S
    C297   O328      0.68082      .   S
    C223   O329      0.67144      .   S
    C301   O329      0.67144      .   S
    C222   O330      0.68082      .   S
    C296   O330      0.68082      .   S
    C222   O331      0.67200      .   S
    C300   O331      0.67200      .   S
    C297   O332      0.67846      .   S
    C299   O332      0.67846      .   S
    C297   O333      0.97109      .   S
    C5     O333      0.97109  1_556   S
    C296   O334      0.67842      .   S
    C298   O334      0.67842      .   S
    C296   O335      0.97110      .   S
    C4     O335      0.97110  1_556   S
    C159   O336      0.54463      .   S
    C41    O336      0.54463      .   S
    C159   O337      0.69847      .   S
    C161   O337      0.69847      .   S
    C158   O338      0.54480      .   S
    C40    O338      0.54480      .   S
    C158   O339      0.69847      .   S
    C160   O339      0.69847      .   S
    C163   O340      0.69651      .   S
    C161   O340      0.69651      .   S
    C163   O341      0.54568      .   S
    C45    O341      0.54568      .   S
    C162   O342      0.69652      .   S
    C160   O342      0.69652      .   S
    C162   O343      0.54568      .   S
    C44    O343      0.54568      .   S
    C195   O344      0.68016      .   S
    C285   O344      0.68016      .   S
    C195   O345      0.69220      .   S
    C197   O345      0.69220      .   S
    C194   O346      0.67993      .   S
    C284   O346      0.67993      .   S
    C194   O347      0.69203      .   S
    C196   O347      0.69203      .   S
    C285   O348      0.68027      .   S
    C193   O348      0.68027      .   S
    C285   O349      1.00458      .   S
    C5     O349      1.00458  1_556   S
    C284   O350      0.68028      .   S
    C192   O350      0.68028      .   S
    C284   O351      1.00458      .   S
    C4     O351      1.00458  1_556   S
    C161   O352      0.54462      .   S
    C43    O352      0.54462      .   S
    C160   O353      0.54461      .   S
    C42    O353      0.54461      .   S
    C301   O354      0.68127      .   S
    C225   O354      0.68127      .   S
    C300   O355      0.68074      .   S
    C224   O355      0.68074      .   S
    C298   O356      0.68185      .   S
    C224   O356      0.68185      .   S
    C299   O357      0.68185      .   S
    C225   O357      0.68185      .   S
    C11    O358      0.54457      .   S
    C113   O358      0.54457      .   S
    C10    O359      0.54458      .   S
    C112   O359      0.54458      .   S
    C225   O360      0.72718      .   S
    C237   O360      0.72718      .   S
    C224   O361      0.72729      .   S
    C236   O361      0.72729      .   S
    C68    O362      0.54440      .   S
    C196   O362      0.54440      .   S
    C69    O363      0.54441      .   S
    C197   O363      0.54441      .   S
    C8     O364      0.54484      .   S
    C110   O364      0.54484      .   S
    C9     O365      0.54479      .   S
    C111   O365      0.54479      .   S
    C196   O366      0.70285      .   S
    C188   O366      0.70285      .   S
    C197   O367      0.70280      .   S
    C189   O367      0.70280      .   S
    C192   O368      0.54341      .   S
    C64    O368      0.54341      .   S
    C192   O369      0.69257      .   S
    C190   O369      0.69257      .   S
    C193   O370      0.54342      .   S
    C65    O370      0.54342      .   S
    C193   O371      0.69272      .   S
    C191   O371      0.69272      .   S
    C113   O372      0.69847      .   S
    C111   O372      0.69847      .   S
    C113   O373      0.69665      .   S
    C115   O373      0.69665      .   S
    C112   O374      0.69847      .   S
    C110   O374      0.69847      .   S
    C112   O375      0.69662      .   S
    C114   O375      0.69662      .   S
    C100   O376      0.54434      .   S
    C244   O376      0.54434      .   S
    C101   O377      0.54444      .   S
    C245   O377      0.54444      .   S
    C111   O378      0.69588      .   S
    C109   O378      0.69588      .   S
    C110   O379      0.69589      .   S
    C108   O379      0.69589      .   S
    C237   O380      0.70293      .   S
    C245   O380      0.70293      .   S
    C237   O381      0.70203      .   S
    C239   O381      0.70203      .   S
    C236   O382      0.70273      .   S
    C244   O382      0.70273      .   S
    C236   O383      0.70200      .   S
    C238   O383      0.70200      .   S
    C244   O384      0.69228      .   S
    C242   O384      0.69228      .   S
    C245   O385      0.69169      .   S
    C243   O385      0.69169      .   S
    C73    O386      0.54482      .   S
    C207   O386      0.54482      .   S
    C72    O387      0.54482      .   S
    C206   O387      0.54482      .   S
    C94    O388      0.54427      .   S
    C238   O388      0.54427      .   S
    C95    O389      0.54401      .   S
    C239   O389      0.54401      .   S
    C188   O390      0.70182      .   S
    C190   O390      0.70182      .   S
    C188   O391      0.72730      .   S
    C177   O391      0.72730  1_655   S
    C189   O392      0.70201      .   S
    C191   O392      0.70201      .   S
    C189   O393      0.72734      .   S
    C176   O393      0.72734      .   S
    C13    O394      0.54564      .   S
    C115   O394      0.54564      .   S
    C12    O395      0.54566      .   S
    C114   O395      0.54566      .   S
    C190   O396      0.54439      .   S
    C62    O396      0.54439      .   S
    C191   O397      0.54408      .   S
    C63    O397      0.54408      .   S
    C239   O398      0.69267      .   S
    C241   O398      0.69267      .   S
    C238   O399      0.69242      .   S
    C240   O399      0.69242      .   S
    C115   O400      0.67635      .   S
    C253   O400      0.67635      .   S
    C114   O401      0.67635      .   S
    C252   O401      0.67635      .   S
    C207   O402      0.69841      .   S
    C209   O402      0.69841      .   S
    C207   O403      0.69596      .   S
    C205   O403      0.69596      .   S
    C206   O404      0.69842      .   S
    C208   O404      0.69842      .   S
    C206   O405      0.69597      .   S
    C204   O405      0.69597      .   S
    C74    O406      0.54459      .   S
    C208   O406      0.54459      .   S
    C75    O407      0.54460      .   S
    C209   O407      0.54460      .   S
    C71    O408      0.54449      .   S
    C205   O408      0.54449      .   S
    C70    O409      0.54449      .   S
    C204   O409      0.54449      .   S
    C109   O410      0.54448  1_545   S
    C7     O410      0.54448      .   S
    C109   O411      0.69788      .   S
    C107   O411      0.69788  1_565   S
    C108   O412      0.54449  1_545   S
    C6     O412      0.54449      .   S
    C108   O413      0.69787      .   S
    C106   O413      0.69787  1_565   S
    C243   O414      0.54372      .   S
    C99    O414      0.54372      .   S
    C243   O415      0.67994      .   S
    C305   O415      0.67994      .   S
    C242   O416      0.54353      .   S
    C98    O416      0.54353      .   S
    C242   O417      0.67999      .   S
    C304   O417      0.67999      .   S
    C208   O418      0.69652      .   S
    C210   O418      0.69652      .   S
    C209   O419      0.69652      .   S
    C211   O419      0.69652      .   S
    C205   O420      0.69787      .   S
    C203   O420      0.69787      .   S
    C204   O421      0.69788      .   S
    C202   O421      0.69788      .   S
    C279   O422      0.68190      .   S
    C177   O422      0.68190      .   S
    C279   O423      0.67828      .   S
    C277   O423      0.67828      .   S
    C278   O424      0.68190      .   S
    C176   O424      0.68190      .   S
    C278   O425      0.67827      .   S
    C276   O425      0.67827      .   S
    C177   O426      0.68056      .   S
    C281   O426      0.68056      .   S
    C176   O427      0.68057      .   S
    C280   O427      0.68057      .   S
    C240   O428      0.68044      .   S
    C304   O428      0.68044      .   S
    C240   O429      0.54357      .   S
    C97    O429      0.54357      .   S
    C241   O430      0.67997      .   S
    C305   O430      0.67997      .   S
    C241   O431      0.54328      .   S
    C96    O431      0.54328  1_455   S
    C79    O432      0.54403      .   S
    C215   O432      0.54403      .   S
    C78    O433      0.54402      .   S
    C214   O433      0.54402      .   S
    C35    O434      0.54351      .   S
    C147   O434      0.54351      .   S
    C34    O435      0.54352      .   S
    C146   O435      0.54352      .   S
    C81    O436      0.54347      .   S
    C217   O436      0.54347      .   S
    C80    O437      0.54346      .   S
    C216   O437      0.54346      .   S
    C253   O438      0.68731      .   S
    C107   O438      0.68731  1_565   S
    C253   O439      0.99615      .   S
    C1     O439      0.99615  1_565   S
    C252   O440      0.68730      .   S
    C106   O440      0.68730  1_565   S
    C252   O441      0.99615      .   S
    C0     O441      0.99615  1_565   S
    C305   O442      1.00448      .   S
    C2     O442      1.00448  1_455   S
    C304   O443      1.00407      .   S
    C3     O443      1.00407      .   S
    C36    O444      0.54412      .   S
    C148   O444      0.54412      .   S
    C37    O445      0.54443      .   S
    C149   O445      0.54443      .   S
    C210   O446      0.54567      .   S
    C76    O446      0.54567      .   S
    C210   O447      0.67639      .   S
    C292   O447      0.67639      .   S
    C211   O448      0.54567      .   S
    C77    O448      0.54567      .   S
    C211   O449      0.67640      .   S
    C293   O449      0.67640      .   S
    C203   O450      0.68726      .   S
    C293   O450      0.68726      .   S
    C203   O451      0.72003      .   S
    C199   O451      0.72003      .   S
    C202   O452      0.68724      .   S
    C292   O452      0.68724      .   S
    C202   O453      0.72003      .   S
    C198   O453      0.72003      .   S
    C107   O454      0.71978      .   S
    C103   O454      0.71978      .   S
    C106   O455      0.71973      .   S
    C102   O455      0.71973      .   S
    C293   O456      0.99588      .   S
    C3     O456      0.99588      .   S
    C292   O457      0.99593      .   S
    C2     O457      0.99593      .   S
    C291   O458      0.67204      .   S
    C199   O458      0.67204      .   S
    C291   O459      0.68081      .   S
    C201   O459      0.68081      .   S
    C290   O460      0.67204      .   S
    C198   O460      0.67204      .   S
    C290   O461      0.68081      .   S
    C200   O461      0.68081      .   S
    C215   O462      0.69276      .   S
    C217   O462      0.69276      .   S
    C215   O463      0.70201      .   S
    C213   O463      0.70201      .   S
    C214   O464      0.69276      .   S
    C216   O464      0.69276      .   S
    C214   O465      0.70205      .   S
    C212   O465      0.70205      .   S
    C199   O466      0.68092      .   S
    C287   O466      0.68092      .   S
    C198   O467      0.68091      .   S
    C286   O467      0.68091      .   S
    C217   O468      0.68029      .   S
    C295   O468      0.68029      .   S
    C216   O469      0.68028      .   S
    C294   O469      0.68028      .   S
    C147   O470      0.69200      .   S
    C149   O470      0.69200      .   S
    C147   O471      0.67996      .   S
    C265   O471      0.67996      .   S
    C146   O472      0.69217      .   S
    C148   O472      0.69217      .   S
    C146   O473      0.67995      .   S
    C264   O473      0.67995      .   S
    C277   O474      0.68079      .   S
    C175   O474      0.68079      .   S
    C277   O475      0.97151      .   S
    C1     O475      0.97151  1_565   S
    C276   O476      0.68085      .   S
    C174   O476      0.68085      .   S
    C276   O477      0.97150      .   S
    C0     O477      0.97150  1_565   S
    C148   O478      0.70313      .   S
    C140   O478      0.70313      .   S
    C149   O479      0.70298      .   S
    C141   O479      0.70298      .   S
    C281   O480      0.67212      .   S
    C175   O480      0.67212      .   S
    C280   O481      0.67213      .   S
    C174   O481      0.67213      .   S
    C201   O482      0.72726      .   S
    C213   O482      0.72726      .   S
    C201   O483      0.68183      .   S
    C289   O483      0.68183      .   S
    C200   O484      0.72724      .   S
    C212   O484      0.72724      .   S
    C200   O485      0.68186      .   S
    C288   O485      0.68186      .   S
    C258   O486      0.67831      .   S
    C256   O486      0.67831      .   S
    C258   O487      0.68185      .   S
    C128   O487      0.68185      .   S
    C259   O488      0.67829      .   S
    C257   O488      0.67829      .   S
    C259   O489      0.68183      .   S
    C129   O489      0.68183      .   S
    C287   O490      0.97106      .   S
    C3     O490      0.97106      .   S
    C287   O491      0.67830      .   S
    C289   O491      0.67830      .   S
    C286   O492      0.97113      .   S
    C2     O492      0.97113      .   S
    C286   O493      0.67829      .   S
    C288   O493      0.67829      .   S
    C213   O494      0.70297      .   S
    C221   O494      0.70297      .   S
    C212   O495      0.70297      .   S
    C220   O495      0.70297      .   S
    C175   O496      0.71978      .   S
    C179   O496      0.71978      .   S
    C174   O497      0.71972      .   S
    C178   O497      0.71972      .   S
    C264   O498      1.00409      .   S
    C0     O498      1.00409      .   S
    C264   O499      0.68029      .   S
    C144   O499      0.68029      .   S
    C265   O500      1.00411      .   S
    C1     O500      1.00411      .   S
    C265   O501      0.68028      .   S
    C145   O501      0.68028      .   S
    C1     O502      1.00423  1_565   S
    C295   O502      1.00423      .   S
    C1     O503      0.97151      .   S
    C247   O503      0.97151      .   S
    C1     O504      0.99614      .   S
    C283   O504      0.99614      .   S
    C2     O505      0.97090  1_455   S
    C257   O505      0.97090      .   S
    C2     O506      0.99577  1_455   S
    C263   O506      0.99577      .   S
    C2     O507      1.00407      .   S
    C274   O507      1.00407      .   S
    C3     O508      0.97100      .   S
    C256   O508      0.97100      .   S
    C3     O509      0.99588      .   S
    C262   O509      0.99588      .   S
    C3     O510      1.00409      .   S
    C275   O510      1.00409      .   S
    C0     O511      1.00425  1_565   S
    C294   O511      1.00425      .   S
    C0     O512      0.97152      .   S
    C246   O512      0.97152      .   S
    C0     O513      0.99612      .   S
    C282   O513      0.99612      .   S
    C295   O514      0.67995      .   S
    C219   O514      0.67995      .   S
    C294   O515      0.67997      .   S
    C218   O515      0.67997      .   S
    C102   O516      0.67210      .   S
    C250   O516      0.67210      .   S
    C102   O517      0.68086      .   S
    C246   O517      0.68086      .   S
    C103   O518      0.67212      .   S
    C251   O518      0.67212      .   S
    C103   O519      0.68079      .   S
    C247   O519      0.68079      .   S
    C140   O520      0.72724      .   S
    C128   O520      0.72724      .   S
    C140   O521      0.70200      .   S
    C142   O521      0.70200      .   S
    C256   O522      0.68096      .   S
    C126   O522      0.68096      .   S
    C141   O523      0.72725      .   S
    C129   O523      0.72725      .   S
    C141   O524      0.70201      .   S
    C143   O524      0.70201      .   S
    C257   O525      0.68091      .   S
    C127   O525      0.68091      .   S
    C128   O526      0.68081      .   S
    C260   O526      0.68081      .   S
    C129   O527      0.68078      .   S
    C261   O527      0.68078      .   S
    C250   O528      0.68101      .   S
    C104   O528      0.68101      .   S
    C251   O529      0.68064      .   S
    C105   O529      0.68064      .   S
    C221   O530      0.69199      .   S
    C219   O530      0.69199      .   S
    C221   O531      0.54433      .   S
    C85    O531      0.54433      .   S
    C220   O532      0.69199      .   S
    C218   O532      0.69199      .   S
    C220   O533      0.54445      .   S
    C84    O533      0.54445      .   S
    C247   O534      0.67827      .   S
    C249   O534      0.67827      .   S
    C246   O535      0.67828      .   S
    C248   O535      0.67828      .   S
    C219   O536      0.54352      .   S
    C83    O536      0.54352      .   S
    C218   O537      0.54351      .   S
    C82    O537      0.54351      .   S
    C145   O538      0.69277      .   S
    C143   O538      0.69277      .   S
    C145   O539      0.54344      .   S
    C33    O539      0.54344      .   S
    C144   O540      0.69278      .   S
    C142   O540      0.69278      .   S
    C144   O541      0.54344      .   S
    C32    O541      0.54344      .   S
    C126   O542      0.67203      .   S
    C260   O542      0.67203      .   S
    C126   O543      0.72003      .   S
    C130   O543      0.72003      .   S
    C127   O544      0.67192      .   S
    C261   O544      0.67192      .   S
    C127   O545      0.72004      .   S
    C131   O545      0.72004      .   S
    C142   O546      0.54405      .   S
    C30    O546      0.54405      .   S
    C143   O547      0.54405      .   S
    C31    O547      0.54405      .   S
    C263   O548      0.68727      .   S
    C131   O548      0.68727      .   S
    C263   O549      0.67639      .   S
    C139   O549      0.67639      .   S
    C262   O550      0.68725      .   S
    C130   O550      0.68725      .   S
    C262   O551      0.67638      .   S
    C138   O551      0.67638      .   S
    C29    O552      0.54565      .   S
    C139   O552      0.54565      .   S
    C28    O553      0.54566      .   S
    C138   O553      0.54566      .   S
    C49    O554      0.54338  1_655   S
    C168   O554      0.54338      .   S
    C48    O555      0.54346      .   S
    C169   O555      0.54346      .   S
    C179   O556      0.68731  1_545   S
    C283   O556      0.68731      .   S
    C179   O557      0.69787  1_545   S
    C181   O557      0.69787      .   S
    C178   O558      0.68731  1_545   S
    C282   O558      0.68731      .   S
    C178   O559      0.69786  1_545   S
    C180   O559      0.69786      .   S
    C130   O560      0.69787      .   S
    C132   O560      0.69787      .   S
    C131   O561      0.69787      .   S
    C133   O561      0.69787      .   S
    C139   O562      0.69652      .   S
    C137   O562      0.69652      .   S
    C138   O563      0.69652      .   S
    C136   O563      0.69652      .   S
    C275   O564      0.68028      .   S
    C169   O564      0.68028      .   S
    C275   O565      0.67998      .   S
    C171   O565      0.67998      .   S
    C274   O566      0.68026      .   S
    C168   O566      0.68026      .   S
    C274   O567      0.67998      .   S
    C170   O567      0.67998      .   S
    C283   O568      0.67634      .   S
    C187   O568      0.67634      .   S
    C282   O569      0.67609      .   S
    C186   O569      0.67609      .   S
    C168   O570      0.69272      .   S
    C166   O570      0.69272      .   S
    C169   O571      0.69266      .   S
    C167   O571      0.69266      .   S
    C14    O572      0.54409      .   S
    C118   O572      0.54409      .   S
    C15    O573      0.54402      .   S
    C119   O573      0.54402      .   S
    C105   O574      0.68186      .   S
    C249   O574      0.68186      .   S
    C105   O575      0.72730      .   S
    C116   O575      0.72730      .   S
    C104   O576      0.68191      .   S
    C248   O576      0.68191      .   S
    C104   O577      0.72729  1_455   S
    C117   O577      0.72729      .   S
    C55    O578      0.54449      .   S
    C181   O578      0.54449  1_565   S
    C54    O579      0.54449      .   S
    C180   O579      0.54449  1_565   S
    C51    O580      0.54347      .   S
    C171   O580      0.54347      .   S
    C50    O581      0.54350      .   S
    C170   O581      0.54350      .   S
    C133   O582      0.54449      .   S
    C23    O582      0.54449      .   S
    C133   O583      0.69596      .   S
    C135   O583      0.69596      .   S
    C132   O584      0.54449      .   S
    C22    O584      0.54449      .   S
    C132   O585      0.69597      .   S
    C134   O585      0.69597      .   S
    C137   O586      0.54460      .   S
    C27    O586      0.54460      .   S
    C137   O587      0.69841      .   S
    C135   O587      0.69841      .   S
    C136   O588      0.54460      .   S
    C26    O588      0.54460      .   S
    C136   O589      0.69841      .   S
    C134   O589      0.69841      .   S
    C171   O590      0.69206      .   S
    C173   O590      0.69206      .   S
    C170   O591      0.69202      .   S
    C172   O591      0.69202      .   S
    C181   O592      0.69588      .   S
    C183   O592      0.69588      .   S
    C180   O593      0.69588      .   S
    C182   O593      0.69588      .   S
    C135   O594      0.54482      .   S
    C25    O594      0.54482      .   S
    C134   O595      0.54482      .   S
    C24    O595      0.54482      .   S
    C186   O596      0.54556      .   S
    C60    O596      0.54556      .   S
    C186   O597      0.69699      .   S
    C184   O597      0.69699      .   S
    C187   O598      0.54564      .   S
    C61    O598      0.54564      .   S
    C187   O599      0.69663      .   S
    C185   O599      0.69663      .   S
    C166   O600      0.54402      .   S
    C46    O600      0.54402      .   S
    C166   O601      0.70201      .   S
    C164   O601      0.70201      .   S
    C167   O602      0.54402      .   S
    C47    O602      0.54402      .   S
    C167   O603      0.70202      .   S
    C165   O603      0.70202      .   S
    C119   O604      0.70203      .   S
    C117   O604      0.70203      .   S
    C119   O605      0.69276      .   S
    C121   O605      0.69276      .   S
    C118   O606      0.70198      .   S
    C116   O606      0.70198      .   S
    C118   O607      0.69272      .   S
    C120   O607      0.69272      .   S
    C116   O608      0.70287      .   S
    C124   O608      0.70287      .   S
    C117   O609      0.70281      .   S
    C125   O609      0.70281      .   S
    C173   O610      0.70290      .   S
    C165   O610      0.70290      .   S
    C173   O611      0.54443      .   S
    C53    O611      0.54443      .   S
    C172   O612      0.70294      .   S
    C164   O612      0.70294      .   S
    C172   O613      0.54428      .   S
    C52    O613      0.54428      .   S
    C164   O614      0.72702      .   S
    C152   O614      0.72702      .   S
    C165   O615      0.72725      .   S
    C153   O615      0.72725      .   S
    C183   O616      0.69847      .   S
    C185   O616      0.69847      .   S
    C183   O617      0.54457      .   S
    C57    O617      0.54457      .   S
    C182   O618      0.69847      .   S
    C184   O618      0.69847      .   S
    C182   O619      0.54484      .   S
    C56    O619      0.54484      .   S
    C16    O620      0.54343      .   S
    C120   O620      0.54343      .   S
    C17    O621      0.54343      .   S
    C121   O621      0.54343      .   S
    C185   O622      0.54462      .   S
    C59    O622      0.54462      .   S
    C184   O623      0.54462      .   S
    C58    O623      0.54462      .   S
    C120   O624      0.68004      .   S
    C254   O624      0.68004      .   S
    C121   O625      0.68000      .   S
    C255   O625      0.68000      .   S
    C124   O626      0.54443      .   S
    C20    O626      0.54443      .   S
    C124   O627      0.69202      .   S
    C122   O627      0.69202      .   S
    C125   O628      0.54443      .   S
    C21    O628      0.54443      .   S
    C125   O629      0.69204      .   S
    C123   O629      0.69204      .   S
    C90    O630      0.54459      .   S
    C232   O630      0.54459      .   S
    C91    O631      0.54460      .   S
    C233   O631      0.54460      .   S
    C152   O632      0.68191      .   S
    C268   O632      0.68191      .   S
    C152   O633      0.68091      .   S
    C270   O633      0.68091      .   S
    C153   O634      0.68186      .   S
    C269   O634      0.68186      .   S
    C153   O635      0.68075      .   S
    C271   O635      0.68075      .   S
    C268   O636      0.67844      .   S
    C266   O636      0.67844      .   S
    C269   O637      0.67842      .   S
    C267   O637      0.67842      .   S
    C92    O638      0.54570      .   S
    C234   O638      0.54570      .   S
    C93    O639      0.54571      .   S
    C235   O639      0.54571      .   S
    C270   O640      0.67199      .   S
    C150   O640      0.67199      .   S
    C271   O641      0.67201      .   S
    C151   O641      0.67201      .   S
    C232   O642      0.69654      .   S
    C234   O642      0.69654      .   S
    C232   O643      0.69849      .   S
    C230   O643      0.69849      .   S
    C233   O644      0.69653      .   S
    C235   O644      0.69653      .   S
    C233   O645      0.69847      .   S
    C231   O645      0.69847      .   S
    C254   O646      0.68003      .   S
    C122   O646      0.68003      .   S
    C254   O647      1.00468      .   S
    C4     O647      1.00468      .   S
    C255   O648      0.68005      .   S
    C123   O648      0.68005      .   S
    C255   O649      1.00467      .   S
    C5     O649      1.00467      .   S
    C122   O650      0.54350      .   S
    C18    O650      0.54350      .   S
    C123   O651      0.54351      .   S
    C19    O651      0.54351      .   S
    C234   O652      0.67642      .   S
    C302   O652      0.67642      .   S
    C235   O653      0.67636      .   S
    C303   O653      0.67636      .   S
    C88    O654      0.54481      .   S
    C230   O654      0.54481      .   S
    C89    O655      0.54479      .   S
    C231   O655      0.54479      .   S
    C230   O656      0.69588      .   S
    C228   O656      0.69588      .   S
    C231   O657      0.69593      .   S
    C229   O657      0.69593      .   S
    C266   O658      0.68082      .   S
    C150   O658      0.68082      .   S
    C266   O659      0.97110      .   S
    C4     O659      0.97110      .   S
    C267   O660      0.68083      .   S
    C151   O660      0.68083      .   S
    C267   O661      0.97110      .   S
    C5     O661      0.97110      .   S
    C150   O662      0.71989      .   S
    C154   O662      0.71989      .   S
    C151   O663      0.71988      .   S
    C155   O663      0.71988      .   S
    C302   O664      0.99584      .   S
    C4     O664      0.99584      .   S
    C303   O665      0.99587      .   S
    C5     O665      0.99587      .   S
