# CIF file generated by openbabel 2.4.90, see http://openbabel.sf.net
data_I
_chemical_name_common ''
_cell_length_a 18.538
_cell_length_b 16.297
_cell_length_c 16.338
_cell_angle_alpha 63.269
_cell_angle_beta 79.284
_cell_angle_gamma 100.929
_space_group_name_H-M_alt 'P 1'
_space_group_name_Hall 'P 1'
loop_
    _symmetry_equiv_pos_as_xyz
    x,y,z
loop_
    _atom_site_label
    _atom_site_type_symbol
    _atom_site_fract_x
    _atom_site_fract_y
    _atom_site_fract_z
    _atom_site_occupancy
    N0      N    0.86670   0.58076   0.53329   1.000
    N1      N    0.13363   0.53339   0.88493   1.000
    N2      N    0.57634   0.88516   0.58128   1.000
    N3      N    0.36640   0.46660   0.11500   1.000
    N4      N    0.13333   0.41925   0.46667   1.000
    N5      N    0.07635   0.88516   0.58128   1.000
    N6      N    0.63364   0.53339   0.88494   1.000
    N7      N    0.86641   0.46661   0.11498   1.000
    N8      N    0.42368   0.11483   0.41867   1.000
    N9      N    0.63333   0.41925   0.46665   1.000
    N10     N    0.36670   0.58077   0.53329   1.000
    N11     N    0.92368   0.11482   0.41866   1.000
    Zr12    Zr   0.25002   0.99999   0.49998   1.000
    O13     O    0.30705   0.03796   0.47191   1.000
    O14     O    0.22969   0.02286   0.43006   1.000
    O15     O    0.23607   0.06311   0.49897   1.000
    O16     O    0.26396   0.93688   0.50099   1.000
    O17     O    0.19298   0.96203   0.52805   1.000
    O18     O    0.27034   0.97713   0.56989   1.000
    Zr19    Zr   0.75001   0.99999   0.49997   1.000
    O20     O    0.73606   0.06311   0.49896   1.000
    O21     O    0.77033   0.97713   0.56988   1.000
    O22     O    0.80704   0.03796   0.47190   1.000
    O23     O    0.69298   0.96202   0.52804   1.000
    O24     O    0.72968   0.02286   0.43005   1.000
    O25     O    0.76395   0.93688   0.50098   1.000
    Zr26    Zr   0.00000   0.50001   0.49997   1.000
    O27     O    0.98544   0.49903   0.43801   1.000
    O28     O    0.04311   0.47211   0.49018   1.000
    O29     O    0.94509   0.42968   0.54731   1.000
    O30     O    0.95690   0.52790   0.50977   1.000
    O31     O    0.05492   0.57033   0.45263   1.000
    O32     O    0.01457   0.50099   0.56191   1.000
    Zr33    Zr   0.50001   0.50001   0.49997   1.000
    O34     O    0.51459   0.50099   0.56192   1.000
    O35     O    0.44510   0.42968   0.54731   1.000
    O36     O    0.55493   0.57033   0.45263   1.000
    O37     O    0.54312   0.47211   0.49017   1.000
    O38     O    0.48544   0.49902   0.43802   1.000
    O39     O    0.45691   0.52790   0.50977   1.000
    Zr40    Zr   0.75002   0.49999   0.99998   1.000
    O41     O    0.70439   0.43800   0.06301   1.000
    O42     O    0.71843   0.54722   0.02242   1.000
    O43     O    0.78161   0.45275   0.97754   1.000
    O44     O    0.78811   0.49014   0.03800   1.000
    O45     O    0.71193   0.50984   0.96195   1.000
    O46     O    0.79565   0.56198   0.93694   1.000
    Zr47    Zr   0.25001   0.49998   0.99998   1.000
    O48     O    0.20438   0.43799   0.06301   1.000
    O49     O    0.21192   0.50984   0.96195   1.000
    O50     O    0.29564   0.56198   0.93694   1.000
    O51     O    0.28161   0.45276   0.97753   1.000
    O52     O    0.28810   0.49014   0.03801   1.000
    O53     O    0.21841   0.54721   0.02243   1.000
loop_
    _geom_bond_atom_site_label_1
    _geom_bond_atom_site_label_2
    _geom_bond_distance
    _geom_bond_site_symmetry_2
    _ccdc_geom_bond_type
    Zr12   O13       1.01356  1_565   S
    N8     O13       2.07222      .   S
    Zr12   O14       1.18997  1_565   S
    N5     O14       3.03351  1_565   S
    Zr12   O15       1.10112  1_565   S
    N4     O15       6.27697      .   S
    Zr12   O16       1.10101      .   S
    N10    O16       6.27672      .   S
    Zr12   O17       1.01358      .   S
    N5     O17       2.07228      .   S
    Zr12   O18       1.18993      .   S
    N8     O18       3.03353  1_545   S
    Zr19   O20       1.10111  1_565   S
    N9     O20       6.27692      .   S
    Zr19   O21       1.18996      .   S
    N11    O21       3.03355  1_545   S
    Zr19   O22       1.01357  1_565   S
    N11    O22       2.07225      .   S
    Zr19   O23       1.01357      .   S
    N2     O23       2.07224      .   S
    Zr19   O24       1.18998  1_565   S
    N2     O24       3.03354  1_565   S
    Zr19   O25       1.10101      .   S
    N0     O25       6.27677      .   S
    Zr26   O27       1.10106  1_455   S
    N7     O27       6.27678      .   S
    Zr26   O28       1.01327      .   S
    N4     O28       2.07175      .   S
    Zr26   O29       1.18961  1_455   S
    N0     O29       3.03310      .   S
    Zr26   O30       1.01308  1_455   S
    N0     O30       2.07140      .   S
    Zr26   O31       1.18972      .   S
    N4     O31       3.03339      .   S
    Zr26   O32       1.10091      .   S
    N1     O32       6.27682      .   S
    Zr33   O34       1.10094      .   S
    N6     O34       6.27693      .   S
    Zr33   O35       1.18968      .   S
    N10    O35       3.03326      .   S
    Zr33   O36       1.18969      .   S
    N9     O36       3.03331      .   S
    Zr33   O37       1.01322      .   S
    N9     O37       2.07165      .   S
    Zr33   O38       1.10098      .   S
    N3     O38       6.27685      .   S
    Zr33   O39       1.01318      .   S
    N10    O39       2.07161      .   S
    Zr40   O41       1.10128  1_556   S
    N8     O41       6.27803      .   S
    Zr40   O42       1.18949  1_556   S
    N6     O42       3.03319  1_556   S
    Zr40   O43       1.18954      .   S
    N7     O43       3.03306  1_554   S
    Zr40   O44       1.01326  1_556   S
    N7     O44       2.07174      .   S
    Zr40   O45       1.01331      .   S
    N6     O45       2.07187      .   S
    Zr40   O46       1.10129      .   S
    N5     O46       6.27803  1_455   S
    Zr47   O48       1.10126  1_556   S
    N11    O48       6.27791  1_655   S
    Zr47   O49       1.01333      .   S
    N1     O49       2.07192      .   S
    Zr47   O50       1.10132      .   S
    N2     O50       6.27805      .   S
    Zr47   O51       1.18953      .   S
    N3     O51       3.03328  1_554   S
    Zr47   O52       1.01332  1_556   S
    N3     O52       2.07189      .   S
    Zr47   O53       1.18953  1_556   S
    N1     O53       3.03338  1_556   S
