# CIF file generated by openbabel 2.4.90, see http://openbabel.sf.net
data_I
_chemical_name_common ''
_cell_length_a 18.538
_cell_length_b 16.297
_cell_length_c 16.338
_cell_angle_alpha 63.269
_cell_angle_beta 79.284
_cell_angle_gamma 100.929
_space_group_name_H-M_alt 'P 1'
_space_group_name_Hall 'P 1'
loop_
    _symmetry_equiv_pos_as_xyz
    x,y,z
loop_
    _atom_site_label
    _atom_site_type_symbol
    _atom_site_fract_x
    _atom_site_fract_y
    _atom_site_fract_z
    _atom_site_occupancy
    Zr0     Zr   0.25002   0.99999   0.49998   1.000
    Zr1     Zr   0.75001   0.99999   0.49997   1.000
    Zr2     Zr   0.00000   0.50001   0.49997   1.000
    Zr3     Zr   0.50001   0.50001   0.49997   1.000
    Zr4     Zr   0.25001   0.49998   0.99998   1.000
    Zr5     Zr   0.75002   0.49999   0.99998   1.000
    N6      N    0.86670   0.58076   0.53329   1.000
    O7      O    0.91380   0.55579   0.51957   1.000
    O8      O    0.77790   0.87376   0.50200   1.000
    O9      O    0.89019   0.35936   0.59464   1.000
    N10     N    0.13363   0.53339   0.88493   1.000
    O11     O    0.17383   0.51970   0.92391   1.000
    O12     O    0.18682   0.59445   0.04487   1.000
    O13     O    0.02914   0.50197   0.62386   1.000
    N14     N    0.57634   0.88516   0.58128   1.000
    O15     O    0.63594   0.92406   0.55612   1.000
    O16     O    0.70935   0.04573   0.36014   1.000
    O17     O    0.34127   0.62397   0.87390   1.000
    N18     N    0.36640   0.46660   0.11500   1.000
    O19     O    0.32619   0.48029   0.07603   1.000
    O20     O    0.47088   0.49804   0.37607   1.000
    O21     O    0.31320   0.40554   0.95508   1.000
    N22     N    0.13333   0.41925   0.46667   1.000
    O23     O    0.08623   0.44422   0.48038   1.000
    O24     O    0.10984   0.64065   0.40529   1.000
    O25     O    0.22212   0.12623   0.49796   1.000
    N26     N    0.07635   0.88516   0.58128   1.000
    O27     O    0.13595   0.92406   0.55612   1.000
    O28     O    0.20936   0.04573   0.36015   1.000
    O29     O    0.84128   0.62397   0.87391   1.000
    N30     N    0.63364   0.53339   0.88494   1.000
    O31     O    0.67384   0.51970   0.92392   1.000
    O32     O    0.68683   0.59446   0.04486   1.000
    O33     O    0.52916   0.50197   0.62386   1.000
    N34     N    0.86641   0.46661   0.11498   1.000
    O35     O    0.82620   0.48030   0.07602   1.000
    O36     O    0.81320   0.40552   0.95510   1.000
    O37     O    0.97088   0.49805   0.37605   1.000
    N38     N    0.42368   0.11483   0.41867   1.000
    O39     O    0.36408   0.07593   0.44383   1.000
    O40     O    0.65876   0.37600   0.12604   1.000
    O41     O    0.29067   0.95426   0.63981   1.000
    N42     N    0.63333   0.41925   0.46665   1.000
    O43     O    0.58623   0.44422   0.48037   1.000
    O44     O    0.60984   0.64065   0.40529   1.000
    O45     O    0.72212   0.12623   0.49795   1.000
    N46     N    0.36670   0.58077   0.53329   1.000
    O47     O    0.41380   0.55579   0.51956   1.000
    O48     O    0.27791   0.87377   0.50199   1.000
    O49     O    0.39019   0.35936   0.59465   1.000
    N50     N    0.92368   0.11482   0.41866   1.000
    O51     O    0.86407   0.07592   0.44382   1.000
    O52     O    0.15875   0.37599   0.12604   1.000
    O53     O    0.79066   0.95426   0.63980   1.000
loop_
    _geom_bond_atom_site_label_1
    _geom_bond_atom_site_label_2
    _geom_bond_distance
    _geom_bond_site_symmetry_2
    _ccdc_geom_bond_type
    N6     O7        1.05925      .   S
    Zr2    O7        2.02615  1_455   S
    N6     O8        5.18356      .   S
    Zr1    O8        2.20202      .   S
    N6     O9        3.42312      .   S
    Zr2    O9        2.37922  1_455   S
    N10    O11       1.05952      .   S
    Zr4    O11       2.02666      .   S
    N10    O12       3.42285  1_556   S
    Zr4    O12       2.37906  1_556   S
    N10    O13       5.18356      .   S
    Zr2    O13       2.20182      .   S
    N14    O15       1.05961      .   S
    Zr1    O15       2.02713      .   S
    N14    O16       3.42295  1_565   S
    Zr1    O16       2.37996  1_565   S
    N14    O17       5.18426      .   S
    Zr4    O17       2.20264      .   S
    N18    O19       1.05949      .   S
    Zr4    O19       2.02664  1_556   S
    N18    O20       5.18353      .   S
    Zr3    O20       2.20196      .   S
    N18    O21       3.42273  1_554   S
    Zr4    O21       2.37906      .   S
    N22    O23       1.05941      .   S
    Zr2    O23       2.02655      .   S
    N22    O24       3.42321      .   S
    Zr2    O24       2.37945      .   S
    N22    O25       5.18364      .   S
    Zr0    O25       2.20224  1_565   S
    N26    O27       1.05963      .   S
    Zr0    O27       2.02716      .   S
    N26    O28       3.42284  1_565   S
    Zr0    O28       2.37995  1_565   S
    N26    O29       5.18426  1_455   S
    Zr5    O29       2.20259      .   S
    N30    O31       1.05949      .   S
    Zr5    O31       2.02663      .   S
    N30    O32       3.42255  1_556   S
    Zr5    O32       2.37899  1_556   S
    N30    O33       5.18363      .   S
    Zr3    O33       2.20189      .   S
    N34    O35       1.05940      .   S
    Zr5    O35       2.02652  1_556   S
    N34    O36       3.42253  1_554   S
    Zr5    O36       2.37908      .   S
    N34    O37       5.18340      .   S
    Zr2    O37       2.20212  1_455   S
    N38    O39       1.05960      .   S
    Zr0    O39       2.02711  1_565   S
    N38    O40       5.18429      .   S
    Zr5    O40       2.20256  1_556   S
    N38    O41       3.42293  1_545   S
    Zr0    O41       2.37986      .   S
    N42    O43       1.05937      .   S
    Zr3    O43       2.02643      .   S
    N42    O44       3.42318      .   S
    Zr3    O44       2.37937      .   S
    N42    O45       5.18361      .   S
    Zr1    O45       2.20221  1_565   S
    N46    O47       1.05937      .   S
    Zr3    O47       2.02636      .   S
    N46    O48       5.18351      .   S
    Zr0    O48       2.20202      .   S
    N46    O49       3.42317      .   S
    Zr3    O49       2.37937      .   S
    N50    O51       1.05961      .   S
    Zr1    O51       2.02714  1_565   S
    N50    O52       5.18419  1_655   S
    Zr4    O52       2.20252  1_556   S
    N50    O53       3.42294  1_545   S
    Zr1    O53       2.37991      .   S
