# CIF file generated by openbabel 2.4.90, see http://openbabel.sf.net
data_I
_chemical_name_common ''
_cell_length_a 14.124
_cell_length_b 14.14
_cell_length_c 14.122
_cell_angle_alpha 104.886
_cell_angle_beta 104.722
_cell_angle_gamma 104.841
_space_group_name_H-M_alt 'P 1'
_space_group_name_Hall 'P 1'
loop_
    _symmetry_equiv_pos_as_xyz
    x,y,z
loop_
    _atom_site_label
    _atom_site_type_symbol
    _atom_site_fract_x
    _atom_site_fract_y
    _atom_site_fract_z
    _atom_site_occupancy
    H0      H    0.46906   0.36216   0.70725   1.000
    H1      H    0.89326   0.17830   0.42548   1.000
    H2      H    0.02873   0.23631   0.49228   1.000
    H3      H    0.74562   0.82442   0.25432   1.000
    H4      H    0.39788   0.19092   0.47807   1.000
    H5      H    0.70702   0.46937   0.36253   1.000
    H6      H    0.42555   0.89349   0.17846   1.000
    H7      H    0.49236   0.02891   0.23643   1.000
    H8      H    0.25425   0.74561   0.82420   1.000
    H9      H    0.47823   0.39808   0.19037   1.000
    H10     H    0.36227   0.70706   0.46891   1.000
    H11     H    0.17864   0.42550   0.89320   1.000
    H12     H    0.23649   0.49230   0.02878   1.000
    H13     H    0.82446   0.25451   0.74550   1.000
    H14     H    0.19033   0.47809   0.39804   1.000
    H15     H    0.63756   0.53089   0.29296   1.000
    H16     H    0.82155   0.10655   0.57443   1.000
    H17     H    0.76360   0.97110   0.50768   1.000
    H18     H    0.17568   0.25439   0.74562   1.000
    H19     H    0.80976   0.60199   0.52181   1.000
    H20     H    0.53089   0.29284   0.63765   1.000
    H21     H    0.10676   0.57450   0.82122   1.000
    H22     H    0.97125   0.50771   0.76334   1.000
    H23     H    0.25435   0.74551   0.17555   1.000
    H24     H    0.60193   0.52190   0.80951   1.000
    H25     H    0.29283   0.63782   0.53085   1.000
    H26     H    0.57449   0.82180   0.10670   1.000
    H27     H    0.50762   0.76380   0.97118   1.000
    H28     H    0.74575   0.17565   0.25445   1.000
    H29     H    0.52186   0.80907   0.60204   1.000
    H30     H    0.53093   0.63786   0.29271   1.000
    H31     H    0.10674   0.82171   0.57448   1.000
    H32     H    0.97126   0.76371   0.50768   1.000
    H33     H    0.25438   0.17560   0.74564   1.000
    H34     H    0.60211   0.80909   0.52188   1.000
    H35     H    0.29297   0.53064   0.63743   1.000
    H36     H    0.57444   0.10653   0.82150   1.000
    H37     H    0.50763   0.97110   0.76353   1.000
    H38     H    0.74574   0.25440   0.17576   1.000
    H39     H    0.52176   0.60193   0.80959   1.000
    H40     H    0.63773   0.29296   0.53100   1.000
    H41     H    0.82136   0.57451   0.10676   1.000
    H42     H    0.76350   0.50772   0.97118   1.000
    H43     H    0.17553   0.74550   0.25441   1.000
    H44     H    0.80966   0.52192   0.60192   1.000
    H45     H    0.36243   0.46913   0.70700   1.000
    H46     H    0.17844   0.89347   0.42553   1.000
    H47     H    0.23639   0.02892   0.49228   1.000
    H48     H    0.82431   0.74563   0.25434   1.000
    H49     H    0.19023   0.39803   0.47814   1.000
    H50     H    0.46910   0.70717   0.36231   1.000
    H51     H    0.89323   0.42552   0.17874   1.000
    H52     H    0.02875   0.49231   0.23662   1.000
    H53     H    0.74564   0.25450   0.82440   1.000
    H54     H    0.39807   0.47812   0.19045   1.000
    H55     H    0.70716   0.36219   0.46910   1.000
    H56     H    0.42550   0.17822   0.89325   1.000
    H57     H    0.49237   0.23621   0.02877   1.000
    H58     H    0.25424   0.82437   0.74551   1.000
    H59     H    0.47813   0.19094   0.39791   1.000
    C60     C    0.97648   0.08033   0.40517   1.000
    C61     C    0.40526   0.97654   0.08041   1.000
    C62     C    0.08046   0.40528   0.97644   1.000
    C63     C    0.91959   0.02348   0.59474   1.000
    C64     C    0.02354   0.59474   0.91945   1.000
    C65     C    0.59477   0.91972   0.02348   1.000
    C66     C    0.02351   0.91968   0.59479   1.000
    C67     C    0.59473   0.02348   0.91955   1.000
    C68     C    0.91953   0.59474   0.02350   1.000
    C69     C    0.08040   0.97654   0.40522   1.000
    C70     C    0.97645   0.40527   0.08051   1.000
    C71     C    0.40522   0.08029   0.97640   1.000
    C72     C    0.90272   0.90270   0.32029   1.000
    C73     C    0.32025   0.90269   0.90266   1.000
    C74     C    0.90275   0.32043   0.90271   1.000
    C75     C    0.09727   0.09731   0.67966   1.000
    C76     C    0.09724   0.67959   0.09725   1.000
    C77     C    0.67974   0.09733   0.09729   1.000
    C78     C    0.49997   0.29776   0.70217   1.000
    C79     C    0.70206   0.50009   0.29798   1.000
    C80     C    0.29782   0.70219   0.49993   1.000
    C81     C    0.50002   0.70226   0.29779   1.000
    C82     C    0.29793   0.49993   0.70198   1.000
    C83     C    0.70217   0.29783   0.50003   1.000
    C84     C    0.38840   0.28495   0.38840   1.000
    C85     C    0.38844   0.38854   0.28459   1.000
    C86     C    0.28451   0.38851   0.38840   1.000
    C87     C    0.71548   0.61151   0.61156   1.000
    C88     C    0.61155   0.61147   0.71537   1.000
    C89     C    0.61159   0.71506   0.61156   1.000
    N90     N    0.88936   0.99635   0.34746   1.000
    N91     N    0.96658   0.17410   0.43630   1.000
    N92     N    0.34755   0.88938   0.99635   1.000
    N93     N    0.43644   0.96674   0.17423   1.000
    N94     N    0.99646   0.34767   0.88927   1.000
    N95     N    0.17432   0.43640   0.96654   1.000
    N96     N    0.00360   0.11065   0.65236   1.000
    N97     N    0.82578   0.03330   0.56358   1.000
    N98     N    0.11067   0.65237   0.00350   1.000
    N99     N    0.03344   0.56361   0.82555   1.000
    N100    N    0.65254   0.00370   0.11064   1.000
    N101    N    0.56359   0.82598   0.03336   1.000
    N102    N    0.11064   0.00367   0.65250   1.000
    N103    N    0.03342   0.82591   0.56362   1.000
    N104    N    0.65244   0.11064   0.00361   1.000
    N105    N    0.56355   0.03328   0.82573   1.000
    N106    N    0.00353   0.65235   0.11069   1.000
    N107    N    0.82567   0.56362   0.03342   1.000
    N108    N    0.99639   0.88937   0.34759   1.000
    N109    N    0.17421   0.96672   0.43637   1.000
    N110    N    0.88932   0.34764   0.99646   1.000
    N111    N    0.96655   0.43641   0.17441   1.000
    N112    N    0.34745   0.99631   0.88932   1.000
    N113    N    0.43640   0.17404   0.96659   1.000
    N114    N    0.07406   0.07405   0.43306   1.000
    N115    N    0.81803   0.81802   0.26293   1.000
    N116    N    0.31759   0.31793   0.42486   1.000
    N117    N    0.43317   0.07402   0.07409   1.000
    N118    N    0.26285   0.81801   0.81794   1.000
    N119    N    0.42495   0.31800   0.31769   1.000
    N120    N    0.07407   0.43312   0.07412   1.000
    N121    N    0.81808   0.26304   0.81800   1.000
    N122    N    0.31765   0.42492   0.31767   1.000
    N123    N    0.92593   0.92597   0.56690   1.000
    N124    N    0.18197   0.18199   0.73703   1.000
    N125    N    0.68240   0.68209   0.57510   1.000
    N126    N    0.92592   0.56690   0.92584   1.000
    N127    N    0.18192   0.73698   0.18195   1.000
    N128    N    0.68234   0.57510   0.68228   1.000
    N129    N    0.56682   0.92599   0.92587   1.000
    N130    N    0.73714   0.18201   0.18202   1.000
    N131    N    0.57505   0.68202   0.68227   1.000
    N132    N    0.42324   0.21661   0.42323   1.000
    N133    N    0.42331   0.42331   0.21607   1.000
    N134    N    0.21594   0.42326   0.42324   1.000
    N135    N    0.78405   0.57676   0.57670   1.000
    N136    N    0.57668   0.57671   0.78389   1.000
    N137    N    0.57675   0.78341   0.57672   1.000
loop_
    _geom_bond_atom_site_label_1
    _geom_bond_atom_site_label_2
    _geom_bond_distance
    _geom_bond_site_symmetry_2
    _ccdc_geom_bond_type
    N98    C76       1.35651      .   S
    N98    C64       1.35436  1_554   S
    N104   C77       1.35652      .   S
    N104   C67       1.35440  1_554   S
    C65    N101      1.34077      .   S
    C65    N100      1.35392  1_565   S
    C65    N129      1.36673  1_554   S
    C68    N107      1.34086      .   S
    C68    N106      1.35439  1_655   S
    C68    N126      1.36664  1_554   S
    H57    N113      1.03124  1_554   S
    H12    N95       1.03130  1_554   S
    N101   H26       1.02711      .   S
    N101   H27       1.03123  1_554   S
    N107   H41       1.02716      .   S
    N107   H42       1.03129  1_554   S
    N117   C61       1.36605  1_545   S
    N117   C71       1.36780  1_554   S
    N120   C70       1.36654  1_455   S
    N120   C62       1.36691  1_554   S
    C61    N93       1.34077      .   S
    C61    N92       1.35440  1_554   S
    C70    N111      1.34078      .   S
    C70    N110      1.35436  1_554   S
    C76    N106      1.35655      .   S
    C76    N127      1.34036      .   S
    C77    N100      1.35654      .   S
    C77    N130      1.34028      .   S
    N93    H6        1.02703      .   S
    N93    H7        1.03114  1_565   S
    N111   H51       1.02715      .   S
    N111   H52       1.03127  1_655   S
    H23    N127      1.02897      .   S
    H38    N130      1.02892      .   S
    N127   H43       1.02901      .   S
    N130   H28       1.02899      .   S
    H9     N133      1.03879      .   S
    H54    N133      1.03858      .   S
    N133   C85       1.33538      .   S
    H3     N115      1.02896      .   S
    H48    N115      1.02894      .   S
    N115   C72       1.34024      .   S
    C85    N122      1.36379      .   S
    C85    N119      1.36381      .   S
    H30    C81       1.10047      .   S
    H15    C79       1.10040      .   S
    C81    H50       1.10044      .   S
    C79    H5        1.10046      .   S
    N122   C86       1.36389      .   S
    N119   C84       1.36382      .   S
    C72    N90       1.35653      .   S
    C72    N108      1.35656      .   S
    N90    C60       1.35390  1_565   S
    N108   C69       1.35426  1_655   S
    C86    N134      1.33530      .   S
    C86    N116      1.36383      .   S
    C84    N132      1.33522      .   S
    C84    N116      1.36380      .   S
    H59    N132      1.03871      .   S
    H14    N134      1.03859      .   S
    C60    N114      1.36653  1_655   S
    C60    N91       1.34074      .   S
    C69    N114      1.36610  1_565   S
    C69    N109      1.34081      .   S
    N132   H4        1.03875      .   S
    N134   H49       1.03882      .   S
    H1     N91       1.02714      .   S
    H46    N109      1.02701      .   S
    N91    H2        1.03135  1_655   S
    N109   H47       1.03115  1_565   S
    H10    C80       1.10053      .   S
    H55    C83       1.10049      .   S
    C80    H25       1.10042      .   S
    C83    H40       1.10008      .   S
    H32    N103      1.03117  1_655   S
    H17    N97       1.03111  1_565   S
    H19    N135      1.03868      .   S
    H34    N137      1.03872      .   S
    N97    H16       1.02700      .   S
    N97    C63       1.34081      .   S
    N103   H31       1.02709      .   S
    N103   C66       1.34080      .   S
    N123   C63       1.36610  1_565   S
    N123   C66       1.36653  1_655   S
    N125   C89       1.36381      .   S
    N125   C87       1.36383      .   S
    N135   H44       1.03873      .   S
    N135   C87       1.33543      .   S
    N137   H29       1.03873      .   S
    N137   C89       1.33530      .   S
    C63    N96       1.35425  1_655   S
    C66    N102      1.35390  1_565   S
    C89    N131      1.36381      .   S
    C87    N128      1.36376      .   S
    H35    C82       1.10045      .   S
    H20    C78       1.10046      .   S
    N96    C75       1.35655      .   S
    N102   C75       1.35652      .   S
    C75    N124      1.34026      .   S
    N131   C88       1.36383      .   S
    N128   C88       1.36385      .   S
    C82    H45       1.10041      .   S
    C78    H0        1.10047      .   S
    C88    N136      1.33534      .   S
    N124   H18       1.02894      .   S
    N124   H33       1.02896      .   S
    H13    N121      1.02957      .   S
    H58    N118      1.02899      .   S
    H22    N99       1.03128  1_655   S
    H37    N105      1.03114  1_565   S
    N136   H24       1.03860      .   S
    N136   H39       1.03882      .   S
    N118   H8        1.02892      .   S
    N118   C73       1.34021      .   S
    N121   H53       1.02897      .   S
    N121   C74       1.34043      .   S
    H21    N99       1.02714      .   S
    H36    N105      1.02703      .   S
    N99    C64       1.34079      .   S
    N105   C67       1.34077      .   S
    N94    C74       1.35655      .   S
    N94    C62       1.35424  1_655   S
    N112   C73       1.35647      .   S
    N112   C71       1.35332  1_565   S
    H11    N95       1.02716      .   S
    H56    N113      1.02711      .   S
    C73    N92       1.35665      .   S
    C74    N110      1.35651      .   S
    C64    N126      1.36652  1_455   S
    C67    N129      1.36605  1_545   S
    N95    C62       1.34074      .   S
    N113   C71       1.34034      .   S
