# CIF file generated by openbabel 2.4.90, see http://openbabel.sf.net
data_I
_chemical_name_common ''
_cell_length_a 14.124
_cell_length_b 14.14
_cell_length_c 14.122
_cell_angle_alpha 104.886
_cell_angle_beta 104.722
_cell_angle_gamma 104.841
_space_group_name_H-M_alt 'P 1'
_space_group_name_Hall 'P 1'
loop_
    _symmetry_equiv_pos_as_xyz
    x,y,z
loop_
    _atom_site_label
    _atom_site_type_symbol
    _atom_site_fract_x
    _atom_site_fract_y
    _atom_site_fract_z
    _atom_site_occupancy
    Lv0     Lv   0.35446   0.35468   0.35448   1.000
    Lv1     Lv   0.01428   0.61736   0.01424   1.000
    Lv2     Lv   0.98566   0.98568   0.38257   1.000
    Lv3     Lv   0.31764   0.68236   0.49990   1.000
    Lv4     Lv   0.38259   0.98566   0.98564   1.000
    Lv5     Lv   0.61740   0.01436   0.01431   1.000
    Lv6     Lv   0.64553   0.64534   0.64548   1.000
    Lv7     Lv   0.01433   0.01434   0.61738   1.000
    Lv8     Lv   0.49997   0.31759   0.68236   1.000
    Lv9     Lv   0.98571   0.38266   0.98571   1.000
    Lv10    Lv   0.50002   0.68243   0.31760   1.000
    Lv11    Lv   0.31778   0.49990   0.68214   1.000
    Lv12    Lv   0.68221   0.50012   0.31782   1.000
    Lv13    Lv   0.68235   0.31766   0.50004   1.000
