# CIF file generated by openbabel 2.4.90, see http://openbabel.sf.net
data_I
_chemical_name_common ''
_cell_length_a 14.124
_cell_length_b 14.14
_cell_length_c 14.122
_cell_angle_alpha 104.886
_cell_angle_beta 104.722
_cell_angle_gamma 104.841
_space_group_name_H-M_alt 'P 1'
_space_group_name_Hall 'P 1'
loop_
    _symmetry_equiv_pos_as_xyz
    x,y,z
loop_
    _atom_site_label
    _atom_site_type_symbol
    _atom_site_fract_x
    _atom_site_fract_y
    _atom_site_fract_z
    _atom_site_occupancy
    C0      C    0.40856   0.19805   0.67381   1.000
    C1      C    0.67396   0.40864   0.19827   1.000
    C2      C    0.19803   0.67387   0.40869   1.000
    C3      C    0.80178   0.59139   0.32600   1.000
    C4      C    0.59132   0.32609   0.80189   1.000
    C5      C    0.32617   0.80195   0.59130   1.000
    C6      C    0.59143   0.80196   0.32615   1.000
    C7      C    0.32603   0.59137   0.80168   1.000
    C8      C    0.80196   0.32615   0.59127   1.000
    C9      C    0.19821   0.40863   0.67387   1.000
    C10     C    0.40867   0.67393   0.19807   1.000
    C11     C    0.67382   0.19807   0.40859   1.000
