# CIF file generated by openbabel 2.4.90, see http://openbabel.sf.net
data_I
_chemical_name_common ''
_cell_length_a 14.124
_cell_length_b 14.14
_cell_length_c 14.122
_cell_angle_alpha 104.886
_cell_angle_beta 104.722
_cell_angle_gamma 104.841
_space_group_name_H-M_alt 'P 1'
_space_group_name_Hall 'P 1'
loop_
    _symmetry_equiv_pos_as_xyz
    x,y,z
loop_
    _atom_site_label
    _atom_site_type_symbol
    _atom_site_fract_x
    _atom_site_fract_y
    _atom_site_fract_z
    _atom_site_occupancy
    C0      C    0.21265   0.21280   0.47826   1.000
    C1      C    0.47852   0.21289   0.21275   1.000
    C2      C    0.21271   0.47822   0.21272   1.000
    C3      C    0.78734   0.78721   0.52170   1.000
    C4      C    0.78728   0.52179   0.78724   1.000
    C5      C    0.52147   0.78713   0.78720   1.000
    C6      C    0.72444   0.99997   0.27553   1.000
    C7      C    0.27584   0.72440   0.00000   1.000
    C8      C    0.00002   0.27575   0.72399   1.000
    C9      C    0.27555   0.00003   0.72442   1.000
    C10     C    0.72415   0.27562   0.99999   1.000
    C11     C    0.99999   0.72427   0.27596   1.000
    C12     C    0.46906   0.36216   0.70725   1.000
    C13     C    0.89326   0.17830   0.42548   1.000
    C14     C    0.02873   0.23631   0.49228   1.000
    C15     C    0.74562   0.82442   0.25432   1.000
    C16     C    0.39788   0.19092   0.47807   1.000
    C17     C    0.70702   0.46937   0.36253   1.000
    C18     C    0.42555   0.89349   0.17846   1.000
    C19     C    0.49236   0.02891   0.23643   1.000
    C20     C    0.25425   0.74561   0.82420   1.000
    C21     C    0.47823   0.39808   0.19037   1.000
    C22     C    0.36227   0.70706   0.46891   1.000
    C23     C    0.17864   0.42550   0.89320   1.000
    C24     C    0.23649   0.49230   0.02878   1.000
    C25     C    0.82446   0.25451   0.74550   1.000
    C26     C    0.19033   0.47809   0.39804   1.000
    C27     C    0.63756   0.53089   0.29296   1.000
    C28     C    0.82155   0.10655   0.57443   1.000
    C29     C    0.76360   0.97110   0.50768   1.000
    C30     C    0.17568   0.25439   0.74562   1.000
    C31     C    0.80976   0.60199   0.52181   1.000
    C32     C    0.53089   0.29284   0.63765   1.000
    C33     C    0.10676   0.57450   0.82122   1.000
    C34     C    0.97125   0.50771   0.76334   1.000
    C35     C    0.25435   0.74551   0.17555   1.000
    C36     C    0.60193   0.52190   0.80951   1.000
    C37     C    0.29283   0.63782   0.53085   1.000
    C38     C    0.57449   0.82180   0.10670   1.000
    C39     C    0.50762   0.76380   0.97118   1.000
    C40     C    0.74575   0.17565   0.25445   1.000
    C41     C    0.52186   0.80907   0.60204   1.000
    C42     C    0.53093   0.63786   0.29271   1.000
    C43     C    0.10674   0.82171   0.57448   1.000
    C44     C    0.97126   0.76371   0.50768   1.000
    C45     C    0.25438   0.17560   0.74564   1.000
    C46     C    0.60211   0.80909   0.52188   1.000
    C47     C    0.29297   0.53064   0.63743   1.000
    C48     C    0.57444   0.10653   0.82150   1.000
    C49     C    0.50763   0.97110   0.76353   1.000
    C50     C    0.74574   0.25440   0.17576   1.000
    C51     C    0.52176   0.60193   0.80959   1.000
    C52     C    0.63773   0.29296   0.53100   1.000
    C53     C    0.82136   0.57451   0.10676   1.000
    C54     C    0.76350   0.50772   0.97118   1.000
    C55     C    0.17553   0.74550   0.25441   1.000
    C56     C    0.80966   0.52192   0.60192   1.000
    C57     C    0.36243   0.46913   0.70700   1.000
    C58     C    0.17844   0.89347   0.42553   1.000
    C59     C    0.23639   0.02892   0.49228   1.000
    C60     C    0.82431   0.74563   0.25434   1.000
    C61     C    0.19023   0.39803   0.47814   1.000
    C62     C    0.46910   0.70717   0.36231   1.000
    C63     C    0.89323   0.42552   0.17874   1.000
    C64     C    0.02875   0.49231   0.23662   1.000
    C65     C    0.74564   0.25450   0.82440   1.000
    C66     C    0.39807   0.47812   0.19045   1.000
    C67     C    0.70716   0.36219   0.46910   1.000
    C68     C    0.42550   0.17822   0.89325   1.000
    C69     C    0.49237   0.23621   0.02877   1.000
    C70     C    0.25424   0.82437   0.74551   1.000
    C71     C    0.47813   0.19094   0.39791   1.000
    C72     C    0.40856   0.19805   0.67381   1.000
    C73     C    0.97648   0.08033   0.40517   1.000
    C74     C    0.67396   0.40864   0.19827   1.000
    C75     C    0.40526   0.97654   0.08041   1.000
    C76     C    0.19803   0.67387   0.40869   1.000
    C77     C    0.08046   0.40528   0.97644   1.000
    C78     C    0.80178   0.59139   0.32600   1.000
    C79     C    0.91959   0.02348   0.59474   1.000
    C80     C    0.59132   0.32609   0.80189   1.000
    C81     C    0.02354   0.59474   0.91945   1.000
    C82     C    0.32617   0.80195   0.59130   1.000
    C83     C    0.59477   0.91972   0.02348   1.000
    C84     C    0.59143   0.80196   0.32615   1.000
    C85     C    0.02351   0.91968   0.59479   1.000
    C86     C    0.32603   0.59137   0.80168   1.000
    C87     C    0.59473   0.02348   0.91955   1.000
    C88     C    0.80196   0.32615   0.59127   1.000
    C89     C    0.91953   0.59474   0.02350   1.000
    C90     C    0.19821   0.40863   0.67387   1.000
    C91     C    0.08040   0.97654   0.40522   1.000
    C92     C    0.40867   0.67393   0.19807   1.000
    C93     C    0.97645   0.40527   0.08051   1.000
    C94     C    0.67382   0.19807   0.40859   1.000
    C95     C    0.40522   0.08029   0.97640   1.000
    C96     C    0.90272   0.90270   0.32029   1.000
    C97     C    0.32025   0.90269   0.90266   1.000
    C98     C    0.90275   0.32043   0.90271   1.000
    C99     C    0.09727   0.09731   0.67966   1.000
    C100    C    0.09724   0.67959   0.09725   1.000
    C101    C    0.67974   0.09733   0.09729   1.000
    C102    C    0.49997   0.29776   0.70217   1.000
    C103    C    0.70206   0.50009   0.29798   1.000
    C104    C    0.29782   0.70219   0.49993   1.000
    C105    C    0.50002   0.70226   0.29779   1.000
    C106    C    0.29793   0.49993   0.70198   1.000
    C107    C    0.70217   0.29783   0.50003   1.000
    C108    C    0.38840   0.28495   0.38840   1.000
    C109    C    0.38844   0.38854   0.28459   1.000
    C110    C    0.28451   0.38851   0.38840   1.000
    C111    C    0.71548   0.61151   0.61156   1.000
    C112    C    0.61155   0.61147   0.71537   1.000
    C113    C    0.61159   0.71506   0.61156   1.000
    C114    C    0.88936   0.99635   0.34746   1.000
    C115    C    0.96658   0.17410   0.43630   1.000
    C116    C    0.34755   0.88938   0.99635   1.000
    C117    C    0.43644   0.96674   0.17423   1.000
    C118    C    0.99646   0.34767   0.88927   1.000
    C119    C    0.17432   0.43640   0.96654   1.000
    C120    C    0.00360   0.11065   0.65236   1.000
    C121    C    0.82578   0.03330   0.56358   1.000
    C122    C    0.11067   0.65237   0.00350   1.000
    C123    C    0.03344   0.56361   0.82555   1.000
    C124    C    0.65254   0.00370   0.11064   1.000
    C125    C    0.56359   0.82598   0.03336   1.000
    C126    C    0.11064   0.00367   0.65250   1.000
    C127    C    0.03342   0.82591   0.56362   1.000
    C128    C    0.65244   0.11064   0.00361   1.000
    C129    C    0.56355   0.03328   0.82573   1.000
    C130    C    0.00353   0.65235   0.11069   1.000
    C131    C    0.82567   0.56362   0.03342   1.000
    C132    C    0.99639   0.88937   0.34759   1.000
    C133    C    0.17421   0.96672   0.43637   1.000
    C134    C    0.88932   0.34764   0.99646   1.000
    C135    C    0.96655   0.43641   0.17441   1.000
    C136    C    0.34745   0.99631   0.88932   1.000
    C137    C    0.43640   0.17404   0.96659   1.000
    C138    C    0.07406   0.07405   0.43306   1.000
    C139    C    0.81803   0.81802   0.26293   1.000
    C140    C    0.31759   0.31793   0.42486   1.000
    C141    C    0.43317   0.07402   0.07409   1.000
    C142    C    0.26285   0.81801   0.81794   1.000
    C143    C    0.42495   0.31800   0.31769   1.000
    C144    C    0.07407   0.43312   0.07412   1.000
    C145    C    0.81808   0.26304   0.81800   1.000
    C146    C    0.31765   0.42492   0.31767   1.000
    C147    C    0.92593   0.92597   0.56690   1.000
    C148    C    0.18197   0.18199   0.73703   1.000
    C149    C    0.68240   0.68209   0.57510   1.000
    C150    C    0.92592   0.56690   0.92584   1.000
    C151    C    0.18192   0.73698   0.18195   1.000
    C152    C    0.68234   0.57510   0.68228   1.000
    C153    C    0.56682   0.92599   0.92587   1.000
    C154    C    0.73714   0.18201   0.18202   1.000
    C155    C    0.57505   0.68202   0.68227   1.000
    C156    C    0.42324   0.21661   0.42323   1.000
    C157    C    0.42331   0.42331   0.21607   1.000
    C158    C    0.21594   0.42326   0.42324   1.000
    C159    C    0.78405   0.57676   0.57670   1.000
    C160    C    0.57668   0.57671   0.78389   1.000
    C161    C    0.57675   0.78341   0.57672   1.000
    C162    C    0.35680   0.14840   0.57720   1.000
    C163    C    0.38643   0.17378   0.74830   1.000
    C164    C    0.57747   0.35700   0.14822   1.000
    C165    C    0.74859   0.38639   0.17400   1.000
    C166    C    0.14814   0.57734   0.35710   1.000
    C167    C    0.17395   0.74830   0.38653   1.000
    C168    C    0.85189   0.64300   0.42262   1.000
    C169    C    0.82565   0.61361   0.25145   1.000
    C170    C    0.64295   0.42262   0.85171   1.000
    C171    C    0.61348   0.25166   0.82598   1.000
    C172    C    0.42271   0.85161   0.64311   1.000
    C173    C    0.25169   0.82622   0.61354   1.000
    C174    C    0.64319   0.85162   0.42273   1.000
    C175    C    0.61357   0.82624   0.25166   1.000
    C176    C    0.42252   0.64301   0.85174   1.000
    C177    C    0.25140   0.61363   0.82556   1.000
    C178    C    0.85185   0.42268   0.64286   1.000
    C179    C    0.82604   0.25171   0.61343   1.000
    C180    C    0.14810   0.35702   0.57734   1.000
    C181    C    0.17434   0.38641   0.74851   1.000
    C182    C    0.35704   0.57740   0.14824   1.000
    C183    C    0.38651   0.74836   0.17397   1.000
    C184    C    0.57728   0.14840   0.35685   1.000
    C185    C    0.74830   0.17379   0.38642   1.000
    O186    O    0.10396   0.66598   0.05037   1.000
    O187    O    0.06710   0.62356   0.96147   1.000
    O188    O    0.19325   0.68839   0.00175   1.000
    O189    O    0.66609   0.10398   0.05045   1.000
    O190    O    0.62358   0.06706   0.96158   1.000
    O191    O    0.68829   0.19313   0.00180   1.000
    O192    O    0.57918   0.87285   0.02842   1.000
    O193    O    0.62366   0.96171   0.06706   1.000
    O194    O    0.58080   0.92286   0.97467   1.000
    O195    O    0.87260   0.57918   0.02846   1.000
    O196    O    0.96153   0.62354   0.06709   1.000
    O197    O    0.92273   0.58082   0.97467   1.000
    O198    O    0.46438   0.20512   0.99768   1.000
    O199    O    0.20540   0.46435   0.99766   1.000
    O200    O    0.56904   0.82389   0.07003   1.000
    O201    O    0.53561   0.79489   0.00227   1.000
    O202    O    0.82351   0.56906   0.07009   1.000
    O203    O    0.79459   0.53567   0.00230   1.000
    O204    O    0.41922   0.02528   0.07725   1.000
    O205    O    0.45584   0.14346   0.14342   1.000
    O206    O    0.41920   0.07716   0.02525   1.000
    O207    O    0.02526   0.41920   0.07731   1.000
    O208    O    0.14339   0.45567   0.14342   1.000
    O209    O    0.07726   0.41920   0.02528   1.000
    O210    O    0.42085   0.97164   0.12732   1.000
    O211    O    0.37641   0.93296   0.03838   1.000
    O212    O    0.97150   0.42084   0.12746   1.000
    O213    O    0.93289   0.37646   0.03849   1.000
    O214    O    0.05039   0.66597   0.10397   1.000
    O215    O    0.13958   0.70828   0.13960   1.000
    O216    O    0.66614   0.05051   0.10396   1.000
    O217    O    0.70844   0.13967   0.13965   1.000
    O218    O    0.68849   0.00184   0.19309   1.000
    O219    O    0.00176   0.68831   0.19332   1.000
    O220    O    0.62572   0.38282   0.17324   1.000
    O221    O    0.38286   0.62566   0.17315   1.000
    O222    O    0.39759   0.71114   0.18602   1.000
    O223    O    0.33118   0.73638   0.08698   1.000
    O224    O    0.71128   0.39752   0.18613   1.000
    O225    O    0.73637   0.33100   0.08699   1.000
    O226    O    0.43099   0.93011   0.17635   1.000
    O227    O    0.46440   0.99783   0.20533   1.000
    O228    O    0.92989   0.43096   0.17657   1.000
    O229    O    0.99765   0.46436   0.20552   1.000
    O230    O    0.21813   0.74125   0.17875   1.000
    O231    O    0.74144   0.21821   0.17889   1.000
    O232    O    0.17872   0.74124   0.21818   1.000
    O233    O    0.74145   0.17883   0.21823   1.000
    O234    O    0.45077   0.41070   0.20322   1.000
    O235    O    0.41069   0.45071   0.20326   1.000
    O236    O    0.45435   0.68810   0.24793   1.000
    O237    O    0.68801   0.45437   0.24812   1.000
    O238    O    0.26518   0.45157   0.26519   1.000
    O239    O    0.45173   0.26544   0.26522   1.000
    O240    O    0.40588   0.40593   0.25033   1.000
    O241    O    0.91282   0.66894   0.26370   1.000
    O242    O    0.81372   0.60250   0.28873   1.000
    O243    O    0.66900   0.91310   0.26359   1.000
    O244    O    0.60250   0.81410   0.28890   1.000
    O245    O    0.78182   0.82122   0.25862   1.000
    O246    O    0.82117   0.78183   0.25863   1.000
    O247    O    0.86037   0.86036   0.29161   1.000
    O248    O    0.80690   0.99816   0.31150   1.000
    O249    O    0.73637   0.08688   0.33098   1.000
    O250    O    0.99819   0.80682   0.31177   1.000
    O251    O    0.08697   0.73629   0.33124   1.000
    O252    O    0.35304   0.40673   0.30113   1.000
    O253    O    0.40669   0.35327   0.30114   1.000
    O254    O    0.51548   0.67006   0.29525   1.000
    O255    O    0.66981   0.51549   0.29547   1.000
    O256    O    0.54573   0.75211   0.31197   1.000
    O257    O    0.48456   0.70472   0.33005   1.000
    O258    O    0.75192   0.54574   0.31199   1.000
    O259    O    0.70454   0.48473   0.33025   1.000
    O260    O    0.30108   0.40671   0.35303   1.000
    O261    O    0.40667   0.30147   0.35304   1.000
    O262    O    0.89604   0.94953   0.33387   1.000
    O263    O    0.94955   0.89604   0.33394   1.000
    O264    O    0.82684   0.61720   0.37431   1.000
    O265    O    0.61731   0.82679   0.37444   1.000
    O266    O    0.93292   0.03834   0.37631   1.000
    O267    O    0.03839   0.93295   0.37640   1.000
    O268    O    0.62555   0.17324   0.38272   1.000
    O269    O    0.17308   0.62560   0.38289   1.000
    O270    O    0.71106   0.18593   0.39750   1.000
    O271    O    0.18599   0.71109   0.39761   1.000
    O272    O    0.25023   0.40588   0.40582   1.000
    O273    O    0.30105   0.35322   0.40663   1.000
    O274    O    0.40582   0.25078   0.40581   1.000
    O275    O    0.35300   0.30144   0.40663   1.000
    O276    O    0.45069   0.20378   0.41057   1.000
    O277    O    0.20314   0.45068   0.41064   1.000
    O278    O    0.02527   0.07719   0.41911   1.000
    O279    O    0.97153   0.12722   0.42073   1.000
    O280    O    0.07723   0.02529   0.41914   1.000
    O281    O    0.12730   0.97163   0.42079   1.000
    O282    O    0.68800   0.24795   0.45431   1.000
    O283    O    0.24793   0.68803   0.45431   1.000
    O284    O    0.41056   0.20377   0.45065   1.000
    O285    O    0.20309   0.41064   0.45069   1.000
    O286    O    0.26512   0.26537   0.45156   1.000
    O287    O    0.92992   0.17620   0.43089   1.000
    O288    O    0.17633   0.93009   0.43095   1.000
    O289    O    0.14335   0.14342   0.45566   1.000
    O290    O    0.99765   0.20521   0.46429   1.000
    O291    O    0.20530   0.99782   0.46432   1.000
    O292    O    0.33004   0.70462   0.48442   1.000
    O293    O    0.70466   0.33001   0.48456   1.000
    O294    O    0.29533   0.67001   0.51539   1.000
    O295    O    0.31200   0.75207   0.54561   1.000
    O296    O    0.66995   0.29539   0.51552   1.000
    O297    O    0.75207   0.31199   0.54565   1.000
    O298    O    0.00234   0.79481   0.53565   1.000
    O299    O    0.79469   0.00220   0.53563   1.000
    O300    O    0.85664   0.85659   0.54430   1.000
    O301    O    0.73487   0.73465   0.54840   1.000
    O302    O    0.79691   0.58937   0.54925   1.000
    O303    O    0.58943   0.79625   0.54930   1.000
    O304    O    0.82366   0.06992   0.56900   1.000
    O305    O    0.87269   0.02839   0.57916   1.000
    O306    O    0.07008   0.82381   0.56905   1.000
    O307    O    0.02846   0.87280   0.57920   1.000
    O308    O    0.92276   0.97473   0.58082   1.000
    O309    O    0.97472   0.92283   0.58084   1.000
    O310    O    0.64700   0.69857   0.59333   1.000
    O311    O    0.69894   0.64680   0.59333   1.000
    O312    O    0.79685   0.54934   0.58931   1.000
    O313    O    0.74977   0.59413   0.59413   1.000
    O314    O    0.54930   0.79624   0.58938   1.000
    O315    O    0.59417   0.74923   0.59414   1.000
    O316    O    0.38268   0.17323   0.62550   1.000
    O317    O    0.17315   0.38282   0.62560   1.000
    O318    O    0.81400   0.28893   0.60235   1.000
    O319    O    0.82691   0.37441   0.61706   1.000
    O320    O    0.28893   0.81408   0.60242   1.000
    O321    O    0.37444   0.82678   0.61721   1.000
    O322    O    0.96160   0.06706   0.62355   1.000
    O323    O    0.06707   0.96167   0.62364   1.000
    O324    O    0.59332   0.69854   0.64692   1.000
    O325    O    0.69891   0.59330   0.64692   1.000
    O326    O    0.91303   0.26373   0.66871   1.000
    O327    O    0.26362   0.91313   0.66898   1.000
    O328    O    0.29545   0.51529   0.66970   1.000
    O329    O    0.51543   0.29530   0.66991   1.000
    O330    O    0.05044   0.10398   0.66601   1.000
    O331    O    0.00181   0.19320   0.68817   1.000
    O332    O    0.10395   0.05049   0.66608   1.000
    O333    O    0.19309   0.00185   0.68846   1.000
    O334    O    0.45426   0.24791   0.68799   1.000
    O335    O    0.39749   0.18592   0.71105   1.000
    O336    O    0.24807   0.45428   0.68792   1.000
    O337    O    0.18627   0.39752   0.71119   1.000
    O338    O    0.13962   0.13965   0.70835   1.000
    O339    O    0.59330   0.64675   0.69882   1.000
    O340    O    0.54826   0.73457   0.73473   1.000
    O341    O    0.64695   0.59329   0.69882   1.000
    O342    O    0.73481   0.54845   0.73476   1.000
    O343    O    0.33018   0.48453   0.70449   1.000
    O344    O    0.31198   0.54565   0.75183   1.000
    O345    O    0.48451   0.32996   0.70471   1.000
    O346    O    0.54564   0.31192   0.75203   1.000
    O347    O    0.59412   0.59409   0.74963   1.000
    O348    O    0.08718   0.33108   0.73625   1.000
    O349    O    0.99824   0.31171   0.80663   1.000
    O350    O    0.33099   0.08690   0.73636   1.000
    O351    O    0.31150   0.99817   0.80687   1.000
    O352    O    0.17882   0.21819   0.74132   1.000
    O353    O    0.21817   0.17880   0.74133   1.000
    O354    O    0.82127   0.25878   0.78175   1.000
    O355    O    0.25855   0.82119   0.78173   1.000
    O356    O    0.00235   0.53566   0.79444   1.000
    O357    O    0.53559   0.00219   0.79463   1.000
    O358    O    0.58930   0.54930   0.79670   1.000
    O359    O    0.54922   0.58932   0.79674   1.000
    O360    O    0.54415   0.85656   0.85653   1.000
    O361    O    0.85660   0.54435   0.85654   1.000
    O362    O    0.28871   0.60250   0.81362   1.000
    O363    O    0.37428   0.61719   0.82671   1.000
    O364    O    0.60240   0.28887   0.81393   1.000
    O365    O    0.61714   0.37435   0.82680   1.000
    O366    O    0.25855   0.78181   0.82107   1.000
    O367    O    0.29155   0.86035   0.86030   1.000
    O368    O    0.78186   0.25877   0.82120   1.000
    O369    O    0.86041   0.29173   0.86035   1.000
    O370    O    0.07010   0.56906   0.82339   1.000
    O371    O    0.56900   0.06991   0.82361   1.000
    O372    O    0.02849   0.57918   0.87250   1.000
    O373    O    0.26362   0.66901   0.91278   1.000
    O374    O    0.57914   0.02838   0.87264   1.000
    O375    O    0.66881   0.26364   0.91299   1.000
    O376    O    0.94960   0.33405   0.89599   1.000
    O377    O    0.03846   0.37648   0.93285   1.000
    O378    O    0.33385   0.94950   0.89599   1.000
    O379    O    0.37634   0.03830   0.93286   1.000
    O380    O    0.17648   0.43095   0.92987   1.000
    O381    O    0.43095   0.17613   0.92992   1.000
    O382    O    0.33390   0.89604   0.94950   1.000
    O383    O    0.89604   0.33403   0.94958   1.000
    O384    O    0.97473   0.58082   0.92265   1.000
    O385    O    0.58078   0.97474   0.92271   1.000
    O386    O    0.12739   0.42084   0.97149   1.000
    O387    O    0.42081   0.12716   0.97149   1.000
    O388    O    0.31170   0.80689   0.99817   1.000
    O389    O    0.80673   0.31163   0.99822   1.000
loop_
    _geom_bond_atom_site_label_1
    _geom_bond_atom_site_label_2
    _geom_bond_distance
    _geom_bond_site_symmetry_2
    _ccdc_geom_bond_type
    C122   O186      0.67826      .   S
    C100   O186      0.67826      .   S
    C122   O187      0.67718  1_554   S
    C81    O187      0.67718      .   S
    C122   O188      1.15642      .   S
    C7     O188      1.15642      .   S
    C128   O189      0.67826      .   S
    C101   O189      0.67826      .   S
    C128   O190      0.67720  1_554   S
    C87    O190      0.67720      .   S
    C128   O191      1.15626      .   S
    C10    O191      1.15626  1_556   S
    C83    O192      0.67039      .   S
    C125   O192      0.67039      .   S
    C83    O193      0.67696      .   S
    C124   O193      0.67696  1_545   S
    C83    O194      0.68336  1_554   S
    C153   O194      0.68336      .   S
    C89    O195      0.67043      .   S
    C131   O195      0.67043      .   S
    C89    O196      0.67719      .   S
    C130   O196      0.67719  1_455   S
    C89    O197      0.68332  1_554   S
    C150   O197      0.68332      .   S
    C69    O198      0.51562  1_554   S
    C137   O198      0.51562      .   S
    C24    O199      0.51565  1_554   S
    C119   O199      0.51565      .   S
    C125   O200      0.51356      .   S
    C38    O200      0.51356      .   S
    C125   O201      0.51562      .   S
    C39    O201      0.51562  1_556   S
    C131   O202      0.51358      .   S
    C53    O202      0.51358      .   S
    C131   O203      0.51565      .   S
    C54    O203      0.51565  1_556   S
    C141   O204      0.68303      .   S
    C75    O204      0.68303  1_565   S
    C141   O205      1.10035      .   S
    C1     O205      1.10035      .   S
    C141   O206      0.68390      .   S
    C95    O206      0.68390  1_556   S
    C144   O207      0.68327      .   S
    C93    O207      0.68327  1_655   S
    C144   O208      1.10034      .   S
    C2     O208      1.10034      .   S
    C144   O209      0.68346      .   S
    C77    O209      0.68346  1_556   S
    C75    O210      0.67038      .   S
    C117   O210      0.67038      .   S
    C75    O211      0.67720      .   S
    C116   O211      0.67720  1_556   S
    C93    O212      0.67039      .   S
    C135   O212      0.67039      .   S
    C93    O213      0.67718      .   S
    C134   O213      0.67718  1_556   S
    C100   O214      0.67827      .   S
    C130   O214      0.67827      .   S
    C100   O215      0.67018      .   S
    C151   O215      0.67018      .   S
    C101   O216      0.67827      .   S
    C124   O216      0.67827      .   S
    C101   O217      0.67014      .   S
    C154   O217      0.67014      .   S
    C124   O218      1.15596      .   S
    C6     O218      1.15596  1_565   S
    C130   O219      1.15651      .   S
    C11    O219      1.15651  1_655   S
    C164   O220      0.63751      .   S
    C74    O220      0.63751      .   S
    C182   O221      0.63755      .   S
    C92    O221      0.63755      .   S
    C183   O222      0.63639      .   S
    C92    O222      0.63639      .   S
    C183   O223      1.21894      .   S
    C7     O223      1.21894      .   S
    C165   O224      0.63750      .   S
    C74    O224      0.63750      .   S
    C165   O225      1.21710      .   S
    C10    O225      1.21710  1_556   S
    C117   O226      0.51352      .   S
    C18    O226      0.51352      .   S
    C117   O227      0.51557      .   S
    C19    O227      0.51557  1_545   S
    C135   O228      0.51358      .   S
    C63    O228      0.51358      .   S
    C135   O229      0.51564      .   S
    C64    O229      0.51564  1_455   S
    C35    O230      0.51449      .   S
    C151   O230      0.51449      .   S
    C50    O231      0.51446      .   S
    C154   O231      0.51446      .   S
    C151   O232      0.51451      .   S
    C55    O232      0.51451      .   S
    C154   O233      0.51449      .   S
    C40    O233      0.51449      .   S
    C21    O234      0.51940      .   S
    C157   O234      0.51940      .   S
    C66    O235      0.51929      .   S
    C157   O235      0.51929      .   S
    C92    O236      0.76325      .   S
    C105   O236      0.76325      .   S
    C74    O237      0.76318      .   S
    C103   O237      0.76318      .   S
    C2     O238      1.11706      .   S
    C146   O238      1.11706      .   S
    C1     O239      1.11712      .   S
    C143   O239      1.11712      .   S
    C157   O240      0.66769      .   S
    C109   O240      0.66769      .   S
    C169   O241      1.21923      .   S
    C11    O241      1.21923      .   S
    C169   O242      0.63575      .   S
    C78    O242      0.63575      .   S
    C175   O243      1.21825      .   S
    C6     O243      1.21825      .   S
    C175   O244      0.63636      .   S
    C84    O244      0.63636      .   S
    C15    O245      0.51448      .   S
    C139   O245      0.51448      .   S
    C60    O246      0.51447      .   S
    C139   O246      0.51447      .   S
    C139   O247      0.67012      .   S
    C96    O247      0.67012      .   S
    C6     O248      1.15597      .   S
    C114   O248      1.15597      .   S
    C6     O249      1.21826  1_565   S
    C185   O249      1.21826      .   S
    C11    O250      1.15643      .   S
    C132   O250      1.15643      .   S
    C11    O251      1.21867  1_655   S
    C167   O251      1.21867      .   S
    C109   O252      0.68189      .   S
    C146   O252      0.68189      .   S
    C109   O253      0.68191      .   S
    C143   O253      0.68191      .   S
    C42    O254      0.55023      .   S
    C105   O254      0.55023      .   S
    C27    O255      0.55020      .   S
    C103   O255      0.55020      .   S
    C105   O256      0.76313      .   S
    C84    O256      0.76313      .   S
    C105   O257      0.55022      .   S
    C62    O257      0.55022      .   S
    C103   O258      0.76323      .   S
    C78    O258      0.76323      .   S
    C103   O259      0.55023      .   S
    C17    O259      0.55023      .   S
    C146   O260      0.68195      .   S
    C110   O260      0.68195      .   S
    C143   O261      0.68191      .   S
    C108   O261      0.68191      .   S
    C96    O262      0.67826      .   S
    C114   O262      0.67826      .   S
    C96    O263      0.67828      .   S
    C132   O263      0.67828      .   S
    C78    O264      0.63801      .   S
    C168   O264      0.63801      .   S
    C84    O265      0.63756      .   S
    C174   O265      0.63756      .   S
    C114   O266      0.67695  1_565   S
    C73    O266      0.67695      .   S
    C132   O267      0.67713  1_655   S
    C91    O267      0.67713      .   S
    C184   O268      0.63756      .   S
    C94    O268      0.63756      .   S
    C166   O269      0.63753      .   S
    C76    O269      0.63753      .   S
    C185   O270      0.63634      .   S
    C94    O270      0.63634      .   S
    C167   O271      0.63638      .   S
    C76    O271      0.63638      .   S
    C110   O272      0.66765      .   S
    C158   O272      0.66765      .   S
    C110   O273      0.68191      .   S
    C140   O273      0.68191      .   S
    C108   O274      0.66761      .   S
    C156   O274      0.66761      .   S
    C108   O275      0.68190      .   S
    C140   O275      0.68190      .   S
    C71    O276      0.51936      .   S
    C156   O276      0.51936      .   S
    C26    O277      0.51930      .   S
    C158   O277      0.51930      .   S
    C73    O278      0.68327  1_655   S
    C138   O278      0.68327      .   S
    C73    O279      0.67037      .   S
    C115   O279      0.67037      .   S
    C91    O280      0.68305  1_565   S
    C138   O280      0.68305      .   S
    C91    O281      0.67041      .   S
    C133   O281      0.67041      .   S
    C94    O282      0.76313      .   S
    C107   O282      0.76313      .   S
    C76    O283      0.76320      .   S
    C104   O283      0.76320      .   S
    C156   O284      0.51937      .   S
    C16    O284      0.51937      .   S
    C158   O285      0.51941      .   S
    C61    O285      0.51941      .   S
    C140   O286      1.11699      .   S
    C0     O286      1.11699      .   S
    C13    O287      0.51357      .   S
    C115   O287      0.51357      .   S
    C58    O288      0.51350      .   S
    C133   O288      0.51350      .   S
    C138   O289      1.10030      .   S
    C0     O289      1.10030      .   S
    C115   O290      0.51568      .   S
    C14    O290      0.51568  1_455   S
    C133   O291      0.51557      .   S
    C59    O291      0.51557  1_545   S
    C22    O292      0.55027      .   S
    C104   O292      0.55027      .   S
    C67    O293      0.55025      .   S
    C107   O293      0.55025      .   S
    C104   O294      0.55021      .   S
    C37    O294      0.55021      .   S
    C104   O295      0.76287      .   S
    C82    O295      0.76287      .   S
    C107   O296      0.55004      .   S
    C52    O296      0.55004      .   S
    C107   O297      0.76320      .   S
    C88    O297      0.76320      .   S
    C44    O298      0.51559  1_655   S
    C127   O298      0.51559      .   S
    C29    O299      0.51555  1_565   S
    C121   O299      0.51555      .   S
    C3     O300      1.10030      .   S
    C147   O300      1.10030      .   S
    C3     O301      1.11699      .   S
    C149   O301      1.11699      .   S
    C31    O302      0.51934      .   S
    C159   O302      0.51934      .   S
    C46    O303      0.51936      .   S
    C161   O303      0.51936      .   S
    C121   O304      0.51350      .   S
    C28    O304      0.51350      .   S
    C121   O305      0.67041      .   S
    C79    O305      0.67041      .   S
    C127   O306      0.51355      .   S
    C43    O306      0.51355      .   S
    C127   O307      0.67040      .   S
    C85    O307      0.67040      .   S
    C147   O308      0.68305      .   S
    C79    O308      0.68305  1_545   S
    C147   O309      0.68327      .   S
    C85    O309      0.68327  1_455   S
    C149   O310      0.68191      .   S
    C113   O310      0.68191      .   S
    C149   O311      0.68191      .   S
    C111   O311      0.68191      .   S
    C159   O312      0.51937      .   S
    C56    O312      0.51937      .   S
    C159   O313      0.66772      .   S
    C111   O313      0.66772      .   S
    C161   O314      0.51936      .   S
    C41    O314      0.51936      .   S
    C161   O315      0.66765      .   S
    C113   O315      0.66765      .   S
    C162   O316      0.63772      .   S
    C72    O316      0.63772      .   S
    C180   O317      0.63751      .   S
    C90    O317      0.63751      .   S
    C88    O318      0.63638      .   S
    C179   O318      0.63638      .   S
    C88    O319      0.63753      .   S
    C178   O319      0.63753      .   S
    C82    O320      0.63653      .   S
    C173   O320      0.63653      .   S
    C82    O321      0.63763      .   S
    C172   O321      0.63763      .   S
    C79    O322      0.67713      .   S
    C120   O322      0.67713  1_455   S
    C85    O323      0.67695      .   S
    C126   O323      0.67695  1_545   S
    C113   O324      0.68190      .   S
    C155   O324      0.68190      .   S
    C111   O325      0.68188      .   S
    C152   O325      0.68188      .   S
    C179   O326      1.21873      .   S
    C8     O326      1.21873  1_455   S
    C173   O327      1.21814      .   S
    C9     O327      1.21814  1_545   S
    C47    O328      0.55022      .   S
    C106   O328      0.55022      .   S
    C32    O329      0.55023      .   S
    C102   O329      0.55023      .   S
    C120   O330      0.67827      .   S
    C99    O330      0.67827      .   S
    C120   O331      1.15639      .   S
    C8     O331      1.15639      .   S
    C126   O332      0.67826      .   S
    C99    O332      0.67826      .   S
    C126   O333      1.15600      .   S
    C9     O333      1.15600      .   S
    C72    O334      0.76313      .   S
    C102   O334      0.76313      .   S
    C72    O335      0.63636      .   S
    C163   O335      0.63636      .   S
    C90    O336      0.76310      .   S
    C106   O336      0.76310      .   S
    C90    O337      0.63636      .   S
    C181   O337      0.63636      .   S
    C99    O338      0.67013      .   S
    C148   O338      0.67013      .   S
    C155   O339      0.68192      .   S
    C112   O339      0.68192      .   S
    C155   O340      1.11708      .   S
    C5     O340      1.11708      .   S
    C152   O341      0.68192      .   S
    C112   O341      0.68192      .   S
    C152   O342      1.11711      .   S
    C4     O342      1.11711      .   S
    C106   O343      0.55020      .   S
    C57    O343      0.55020      .   S
    C106   O344      0.76314      .   S
    C86    O344      0.76314      .   S
    C102   O345      0.55024      .   S
    C12    O345      0.55024      .   S
    C102   O346      0.76326      .   S
    C80    O346      0.76326      .   S
    C112   O347      0.66767      .   S
    C160   O347      0.66767      .   S
    C8     O348      1.21911      .   S
    C181   O348      1.21911      .   S
    C8     O349      1.15662  1_455   S
    C118   O349      1.15662      .   S
    C9     O350      1.21832      .   S
    C163   O350      1.21832      .   S
    C9     O351      1.15598  1_545   S
    C136   O351      1.15598      .   S
    C148   O352      0.51447      .   S
    C30    O352      0.51447      .   S
    C148   O353      0.51448      .   S
    C45    O353      0.51448      .   S
    C25    O354      0.51479      .   S
    C145   O354      0.51479      .   S
    C70    O355      0.51449      .   S
    C142   O355      0.51449      .   S
    C34    O356      0.51564  1_655   S
    C123   O356      0.51564      .   S
    C49    O357      0.51557  1_565   S
    C129   O357      0.51557      .   S
    C160   O358      0.51930      .   S
    C36    O358      0.51930      .   S
    C160   O359      0.51941      .   S
    C51    O359      0.51941      .   S
    C5     O360      1.10039      .   S
    C153   O360      1.10039      .   S
    C4     O361      1.10034      .   S
    C150   O361      1.10034      .   S
    C86    O362      0.63636      .   S
    C177   O362      0.63636      .   S
    C86    O363      0.63752      .   S
    C176   O363      0.63752      .   S
    C80    O364      0.63635      .   S
    C171   O364      0.63635      .   S
    C80    O365      0.63754      .   S
    C170   O365      0.63754      .   S
    C142   O366      0.51446      .   S
    C20    O366      0.51446      .   S
    C142   O367      0.67010      .   S
    C97    O367      0.67010      .   S
    C145   O368      0.51449      .   S
    C65    O368      0.51449      .   S
    C145   O369      0.67022      .   S
    C98    O369      0.67022      .   S
    C33    O370      0.51357      .   S
    C123   O370      0.51357      .   S
    C48    O371      0.51352      .   S
    C129   O371      0.51352      .   S
    C123   O372      0.67040      .   S
    C81    O372      0.67040      .   S
    C177   O373      1.21957      .   S
    C7     O373      1.21957  1_554   S
    C129   O374      0.67039      .   S
    C87    O374      0.67039      .   S
    C171   O375      1.21916      .   S
    C10    O375      1.21916      .   S
    C118   O376      0.67827      .   S
    C98    O376      0.67827      .   S
    C118   O377      0.67712  1_655   S
    C77    O377      0.67712      .   S
    C136   O378      0.67824      .   S
    C97    O378      0.67824      .   S
    C136   O379      0.67666  1_565   S
    C95    O379      0.67666      .   S
    C23    O380      0.51358      .   S
    C119   O380      0.51358      .   S
    C68    O381      0.51356      .   S
    C137   O381      0.51356      .   S
    C97    O382      0.67833      .   S
    C116   O382      0.67833      .   S
    C98    O383      0.67825      .   S
    C134   O383      0.67825      .   S
    C81    O384      0.68326  1_455   S
    C150   O384      0.68326      .   S
    C87    O385      0.68303  1_545   S
    C153   O385      0.68303      .   S
    C119   O386      0.67037      .   S
    C77    O386      0.67037      .   S
    C137   O387      0.67017      .   S
    C95    O387      0.67017      .   S
    C116   O388      1.15635      .   S
    C7     O388      1.15635  1_554   S
    C134   O389      1.15654      .   S
    C10    O389      1.15654      .   S
