# CIF file generated by openbabel 2.4.90, see http://openbabel.sf.net
data_I
_chemical_name_common ''
_cell_length_a 14.124
_cell_length_b 14.14
_cell_length_c 14.122
_cell_angle_alpha 104.886
_cell_angle_beta 104.722
_cell_angle_gamma 104.841
_space_group_name_H-M_alt 'P 1'
_space_group_name_Hall 'P 1'
loop_
    _symmetry_equiv_pos_as_xyz
    x,y,z
loop_
    _atom_site_label
    _atom_site_type_symbol
    _atom_site_fract_x
    _atom_site_fract_y
    _atom_site_fract_z
    _atom_site_occupancy
    Zr0     Zr   0.21265   0.21280   0.47826   1.000
    Zr1     Zr   0.47852   0.21289   0.21275   1.000
    Zr2     Zr   0.21271   0.47822   0.21272   1.000
    Zr3     Zr   0.78734   0.78721   0.52170   1.000
    Zr4     Zr   0.78728   0.52179   0.78724   1.000
    Zr5     Zr   0.52147   0.78713   0.78720   1.000
    Zr6     Zr   0.72444   0.99997   0.27553   1.000
    Zr7     Zr   0.27584   0.72440   0.00000   1.000
    Zr8     Zr   0.00002   0.27575   0.72399   1.000
    Zr9     Zr   0.27555   0.00003   0.72442   1.000
    Zr10    Zr   0.72415   0.27562   0.99999   1.000
    Zr11    Zr   0.99999   0.72427   0.27596   1.000
    Zr12    Zr   0.40856   0.19805   0.67381   1.000
    Zr13    Zr   0.67396   0.40864   0.19827   1.000
    Zr14    Zr   0.19803   0.67387   0.40869   1.000
    Zr15    Zr   0.80178   0.59139   0.32600   1.000
    Zr16    Zr   0.59132   0.32609   0.80189   1.000
    Zr17    Zr   0.32617   0.80195   0.59130   1.000
    Zr18    Zr   0.59143   0.80196   0.32615   1.000
    Zr19    Zr   0.32603   0.59137   0.80168   1.000
    Zr20    Zr   0.80196   0.32615   0.59127   1.000
    Zr21    Zr   0.19821   0.40863   0.67387   1.000
    Zr22    Zr   0.40867   0.67393   0.19807   1.000
    Zr23    Zr   0.67382   0.19807   0.40859   1.000
    Zr24    Zr   0.35680   0.14840   0.57720   1.000
    Zr25    Zr   0.38643   0.17378   0.74830   1.000
    Zr26    Zr   0.57747   0.35700   0.14822   1.000
    Zr27    Zr   0.74859   0.38639   0.17400   1.000
    Zr28    Zr   0.14814   0.57734   0.35710   1.000
    Zr29    Zr   0.17395   0.74830   0.38653   1.000
    Zr30    Zr   0.85189   0.64300   0.42262   1.000
    Zr31    Zr   0.82565   0.61361   0.25145   1.000
    Zr32    Zr   0.64295   0.42262   0.85171   1.000
    Zr33    Zr   0.61348   0.25166   0.82598   1.000
    Zr34    Zr   0.42271   0.85161   0.64311   1.000
    Zr35    Zr   0.25169   0.82622   0.61354   1.000
    Zr36    Zr   0.64319   0.85162   0.42273   1.000
    Zr37    Zr   0.61357   0.82624   0.25166   1.000
    Zr38    Zr   0.42252   0.64301   0.85174   1.000
    Zr39    Zr   0.25140   0.61363   0.82556   1.000
    Zr40    Zr   0.85185   0.42268   0.64286   1.000
    Zr41    Zr   0.82604   0.25171   0.61343   1.000
    Zr42    Zr   0.14810   0.35702   0.57734   1.000
    Zr43    Zr   0.17434   0.38641   0.74851   1.000
    Zr44    Zr   0.35704   0.57740   0.14824   1.000
    Zr45    Zr   0.38651   0.74836   0.17397   1.000
    Zr46    Zr   0.57728   0.14840   0.35685   1.000
    Zr47    Zr   0.74830   0.17379   0.38642   1.000
    O48     O    0.62572   0.38282   0.17324   1.000
    O49     O    0.38286   0.62566   0.17315   1.000
    O50     O    0.39759   0.71114   0.18602   1.000
    O51     O    0.33118   0.73638   0.08698   1.000
    O52     O    0.71128   0.39752   0.18613   1.000
    O53     O    0.73637   0.33100   0.08699   1.000
    O54     O    0.91282   0.66894   0.26370   1.000
    O55     O    0.81372   0.60250   0.28873   1.000
    O56     O    0.66900   0.91310   0.26359   1.000
    O57     O    0.60250   0.81410   0.28890   1.000
    O58     O    0.73637   0.08688   0.33098   1.000
    O59     O    0.08697   0.73629   0.33124   1.000
    O60     O    0.82684   0.61720   0.37431   1.000
    O61     O    0.61731   0.82679   0.37444   1.000
    O62     O    0.62555   0.17324   0.38272   1.000
    O63     O    0.17308   0.62560   0.38289   1.000
    O64     O    0.71106   0.18593   0.39750   1.000
    O65     O    0.18599   0.71109   0.39761   1.000
    O66     O    0.38268   0.17323   0.62550   1.000
    O67     O    0.17315   0.38282   0.62560   1.000
    O68     O    0.81400   0.28893   0.60235   1.000
    O69     O    0.82691   0.37441   0.61706   1.000
    O70     O    0.28893   0.81408   0.60242   1.000
    O71     O    0.37444   0.82678   0.61721   1.000
    O72     O    0.91303   0.26373   0.66871   1.000
    O73     O    0.26362   0.91313   0.66898   1.000
    O74     O    0.39749   0.18592   0.71105   1.000
    O75     O    0.18627   0.39752   0.71119   1.000
    O76     O    0.08718   0.33108   0.73625   1.000
    O77     O    0.33099   0.08690   0.73636   1.000
    O78     O    0.28871   0.60250   0.81362   1.000
    O79     O    0.37428   0.61719   0.82671   1.000
    O80     O    0.60240   0.28887   0.81393   1.000
    O81     O    0.61714   0.37435   0.82680   1.000
    O82     O    0.26362   0.66901   0.91278   1.000
    O83     O    0.66881   0.26364   0.91299   1.000
    N84     N    0.35446   0.35468   0.35448   1.000
    O85     O    0.40310   0.31006   0.30985   1.000
    O86     O    0.30979   0.31002   0.40302   1.000
    O87     O    0.30982   0.40313   0.30984   1.000
    N88     N    0.01428   0.61736   0.01424   1.000
    O89     O    0.93544   0.58085   0.93539   1.000
    O90     O    0.00802   0.65283   0.10378   1.000
    O91     O    0.10377   0.65287   0.00800   1.000
    N92     N    0.98566   0.98568   0.38257   1.000
    O93     O    0.06451   0.06455   0.41912   1.000
    O94     O    0.89628   0.99192   0.34703   1.000
    O95     O    0.99193   0.89625   0.34717   1.000
    N96     N    0.31764   0.68236   0.49990   1.000
    O97     O    0.28278   0.68519   0.47710   1.000
    O98     O    0.31482   0.71721   0.52276   1.000
    N99     N    0.38259   0.98566   0.98564   1.000
    O100    O    0.34714   0.89627   0.99191   1.000
    O101    O    0.34704   0.99191   0.89626   1.000
    O102    O    0.41922   0.06456   0.06453   1.000
    N103    N    0.61740   0.01436   0.01431   1.000
    O104    O    0.65295   0.00810   0.10370   1.000
    O105    O    0.58077   0.93546   0.93542   1.000
    O106    O    0.65285   0.10375   0.00806   1.000
    N107    N    0.64553   0.64534   0.64548   1.000
    O108    O    0.59690   0.68996   0.69011   1.000
    O109    O    0.69020   0.68999   0.59694   1.000
    O110    O    0.69017   0.59689   0.69012   1.000
    N111    N    0.01433   0.01434   0.61738   1.000
    O112    O    0.10371   0.00809   0.65292   1.000
    O113    O    0.00807   0.10377   0.65278   1.000
    O114    O    0.93548   0.93546   0.58084   1.000
    N115    N    0.49997   0.31759   0.68236   1.000
    O116    O    0.52281   0.31475   0.71719   1.000
    O117    O    0.47712   0.28275   0.68517   1.000
    N118    N    0.98571   0.38266   0.98571   1.000
    O119    O    0.89622   0.34715   0.99197   1.000
    O120    O    0.06455   0.41917   0.06457   1.000
    O121    O    0.99198   0.34719   0.89617   1.000
    N122    N    0.50002   0.68243   0.31760   1.000
    O123    O    0.52287   0.71727   0.31479   1.000
    O124    O    0.47718   0.68526   0.28277   1.000
    N125    N    0.31778   0.49990   0.68214   1.000
    O126    O    0.31488   0.52278   0.71698   1.000
    O127    O    0.28293   0.47709   0.68503   1.000
    N128    N    0.68221   0.50012   0.31782   1.000
    O129    O    0.68511   0.47724   0.28297   1.000
    O130    O    0.71707   0.52293   0.31491   1.000
    N131    N    0.68235   0.31766   0.50004   1.000
    O132    O    0.71721   0.31482   0.52285   1.000
    O133    O    0.68517   0.28281   0.47718   1.000
loop_
    _geom_bond_atom_site_label_1
    _geom_bond_atom_site_label_2
    _geom_bond_distance
    _geom_bond_site_symmetry_2
    _ccdc_geom_bond_type
    Zr26   O48       0.63751      .   S
    Zr13   O48       0.63751      .   S
    Zr44   O49       0.63755      .   S
    Zr22   O49       0.63755      .   S
    Zr45   O50       0.63639      .   S
    Zr22   O50       0.63639      .   S
    Zr45   O51       1.21894      .   S
    Zr7    O51       1.21894      .   S
    Zr27   O52       0.63750      .   S
    Zr13   O52       0.63750      .   S
    Zr27   O53       1.21710      .   S
    Zr10   O53       1.21710  1_556   S
    Zr31   O54       1.21923      .   S
    Zr11   O54       1.21923      .   S
    Zr31   O55       0.63575      .   S
    Zr15   O55       0.63575      .   S
    Zr37   O56       1.21825      .   S
    Zr6    O56       1.21825      .   S
    Zr37   O57       0.63636      .   S
    Zr18   O57       0.63636      .   S
    Zr6    O58       1.21826  1_565   S
    Zr47   O58       1.21826      .   S
    Zr11   O59       1.21867  1_655   S
    Zr29   O59       1.21867      .   S
    Zr15   O60       0.63801      .   S
    Zr30   O60       0.63801      .   S
    Zr18   O61       0.63756      .   S
    Zr36   O61       0.63756      .   S
    Zr46   O62       0.63756      .   S
    Zr23   O62       0.63756      .   S
    Zr28   O63       0.63753      .   S
    Zr14   O63       0.63753      .   S
    Zr47   O64       0.63634      .   S
    Zr23   O64       0.63634      .   S
    Zr29   O65       0.63638      .   S
    Zr14   O65       0.63638      .   S
    Zr24   O66       0.63772      .   S
    Zr12   O66       0.63772      .   S
    Zr42   O67       0.63751      .   S
    Zr21   O67       0.63751      .   S
    Zr20   O68       0.63638      .   S
    Zr41   O68       0.63638      .   S
    Zr20   O69       0.63753      .   S
    Zr40   O69       0.63753      .   S
    Zr17   O70       0.63653      .   S
    Zr35   O70       0.63653      .   S
    Zr17   O71       0.63763      .   S
    Zr34   O71       0.63763      .   S
    Zr41   O72       1.21873      .   S
    Zr8    O72       1.21873  1_455   S
    Zr35   O73       1.21814      .   S
    Zr9    O73       1.21814  1_545   S
    Zr12   O74       0.63636      .   S
    Zr25   O74       0.63636      .   S
    Zr21   O75       0.63636      .   S
    Zr43   O75       0.63636      .   S
    Zr8    O76       1.21911      .   S
    Zr43   O76       1.21911      .   S
    Zr9    O77       1.21832      .   S
    Zr25   O77       1.21832      .   S
    Zr19   O78       0.63636      .   S
    Zr39   O78       0.63636      .   S
    Zr19   O79       0.63752      .   S
    Zr38   O79       0.63752      .   S
    Zr16   O80       0.63635      .   S
    Zr33   O80       0.63635      .   S
    Zr16   O81       0.63754      .   S
    Zr32   O81       0.63754      .   S
    Zr39   O82       1.21957      .   S
    Zr7    O82       1.21957  1_554   S
    Zr33   O83       1.21916      .   S
    Zr10   O83       1.21916      .   S
    N84    O85       1.22673      .   S
    Zr1    O85       2.32960      .   S
    N84    O86       1.22673      .   S
    Zr0    O86       2.32950      .   S
    N84    O87       1.22691      .   S
    Zr2    O87       2.32981      .   S
    N88    O89       1.23545  1_454   S
    Zr4    O89       2.33141      .   S
    N88    O90       1.26968      .   S
    Zr11   O90       2.42536  1_655   S
    N88    O91       1.26953      .   S
    Zr7    O91       2.42511      .   S
    N92    O93       1.23539  1_665   S
    Zr0    O93       2.33133      .   S
    N92    O94       1.26934      .   S
    Zr6    O94       2.42451      .   S
    N92    O95       1.26955      .   S
    Zr11   O95       2.42518      .   S
    N96    O97       0.53272      .   S
    Zr14   O97       1.27534      .   S
    N96    O98       0.53251      .   S
    Zr17   O98       1.27478      .   S
    N99    O100      1.26954      .   S
    Zr7    O100      2.42509  1_554   S
    N99    O101      1.26938      .   S
    Zr9    O101      2.42456  1_545   S
    N99    O102      1.23543  1_566   S
    Zr1    O102      2.33140      .   S
    N103   O104      1.26942      .   S
    Zr6    O104      2.42458  1_565   S
    N103   O105      1.23542  1_544   S
    Zr5    O105      2.33143      .   S
    N103   O106      1.26947      .   S
    Zr10   O106      2.42493  1_556   S
    N107   O108      1.22673      .   S
    Zr5    O108      2.32956      .   S
    N107   O109      1.22670      .   S
    Zr3    O109      2.32947      .   S
    N107   O110      1.22691      .   S
    Zr4    O110      2.32986      .   S
    N111   O112      1.26936      .   S
    Zr9    O112      2.42455      .   S
    N111   O113      1.26953      .   S
    Zr8    O113      2.42511      .   S
    N111   O114      1.23540  1_445   S
    Zr3    O114      2.33133      .   S
    N115   O116      0.53269      .   S
    Zr16   O116      1.27534      .   S
    N115   O117      0.53254      .   S
    Zr12   O117      1.27505      .   S
    N118   O119      1.26961      .   S
    Zr10   O119      2.42532      .   S
    N118   O120      1.23548  1_656   S
    Zr2    O120      2.33144      .   S
    N118   O121      1.26970      .   S
    Zr8    O121      2.42549  1_455   S
    N122   O123      0.53254      .   S
    Zr18   O123      1.27504      .   S
    N122   O124      0.53268      .   S
    Zr22   O124      1.27533      .   S
    N125   O126      0.53265      .   S
    Zr19   O126      1.27522      .   S
    N125   O127      0.53266      .   S
    Zr21   O127      1.27520      .   S
    N128   O129      0.53268      .   S
    Zr13   O129      1.27530      .   S
    N128   O130      0.53280      .   S
    Zr15   O130      1.27550      .   S
    N131   O132      0.53278      .   S
    Zr20   O132      1.27541      .   S
    N131   O133      0.53254      .   S
    Zr23   O133      1.27505      .   S
