# CIF file generated by openbabel 2.4.90, see http://openbabel.sf.net
data_I
_chemical_name_common ''
_cell_length_a 10.9375
_cell_length_b 13.463
_cell_length_c 15.13
_cell_angle_alpha 90.056
_cell_angle_beta 105.416
_cell_angle_gamma 90.013
_space_group_name_H-M_alt 'P 1'
_space_group_name_Hall 'P 1'
loop_
    _symmetry_equiv_pos_as_xyz
    x,y,z
loop_
    _atom_site_label
    _atom_site_type_symbol
    _atom_site_fract_x
    _atom_site_fract_y
    _atom_site_fract_z
    _atom_site_occupancy
    N0      N    0.00005   0.49990   0.00003   1.000
    N1      N    0.00025   0.99987   0.99999   1.000
    N2      N    0.50000   0.00017   0.99968   1.000
    N3      N    0.50048   0.49955   0.99974   1.000
    Zr4     Zr   0.75175   0.17410   0.49994   1.000
    O5      O    0.80007   0.11765   0.36337   1.000
    O6      O    0.70246   0.11773   0.63645   1.000
    O7      O    0.67558   0.26288   0.63420   1.000
    O8      O    0.82714   0.26300   0.36566   1.000
    Zr9     Zr   0.25058   0.82537   0.50002   1.000
    O10     O    0.20167   0.88189   0.63657   1.000
    O11     O    0.29926   0.88196   0.36338   1.000
    O12     O    0.32638   0.73649   0.36562   1.000
    O13     O    0.17462   0.73659   0.63436   1.000
loop_
    _geom_bond_atom_site_label_1
    _geom_bond_atom_site_label_2
    _geom_bond_distance
    _geom_bond_site_symmetry_2
    _ccdc_geom_bond_type
    Zr4    O5        2.38840      .   S
    N1     O5        6.62721  1_466   S
    Zr4    O6        2.39311      .   S
    N2     O6        6.64051      .   S
    Zr4    O7        2.67281      .   S
    N3     O7        7.07160      .   S
    Zr4    O8        2.67120      .   S
    N0     O8        7.06721  1_455   S
    Zr9    O10       2.39126      .   S
    N1     O10       6.63593      .   S
    Zr9    O11       2.39285      .   S
    N2     O11       6.63882  1_546   S
    Zr9    O12       2.67329      .   S
    N3     O12       7.07238  1_556   S
    Zr9    O13       2.67433      .   S
    N0     O13       7.07516  1_554   S
