# CIF file generated by openbabel 2.4.90, see http://openbabel.sf.net
data_I
_chemical_name_common ''
_cell_length_a 20.472
_cell_length_b 12.631
_cell_length_c 15.386
_cell_angle_alpha 90.011
_cell_angle_beta 90.002
_cell_angle_gamma 90.012
_space_group_name_H-M_alt 'P 1'
_space_group_name_Hall 'P 1'
loop_
    _symmetry_equiv_pos_as_xyz
    x,y,z
loop_
    _atom_site_label
    _atom_site_type_symbol
    _atom_site_fract_x
    _atom_site_fract_y
    _atom_site_fract_z
    _atom_site_occupancy
    H0      H    0.26009   0.49350   0.89000   1.000
    H1      H    0.76009   0.49351   0.89007   1.000
    H2      H    0.48991   0.50649   0.39012   1.000
    H3      H    0.98991   0.50650   0.39013   1.000
    H4      H    0.23990   0.99356   0.60983   1.000
    H5      H    0.73990   0.99355   0.60982   1.000
    H6      H    0.01010   0.00646   0.10980   1.000
    H7      H    0.51010   0.00646   0.10986   1.000
    H8      H    0.23991   0.50653   0.10988   1.000
    H9      H    0.73991   0.50653   0.10988   1.000
    H10     H    0.01009   0.49354   0.60983   1.000
    H11     H    0.51009   0.49354   0.60983   1.000
    H12     H    0.26010   0.00648   0.39012   1.000
    H13     H    0.76010   0.00648   0.39010   1.000
    H14     H    0.48989   0.99357   0.89009   1.000
    H15     H    0.98990   0.99358   0.89010   1.000
    C16     C    0.29570   0.55560   0.87475   1.000
    C17     C    0.79570   0.55560   0.87475   1.000
    C18     C    0.45430   0.44439   0.37480   1.000
    C19     C    0.95430   0.44439   0.37481   1.000
    C20     C    0.20431   0.05564   0.62510   1.000
    C21     C    0.70431   0.05564   0.62516   1.000
    C22     C    0.04571   0.94439   0.12518   1.000
    C23     C    0.54570   0.94438   0.12517   1.000
    C24     C    0.20430   0.44443   0.12520   1.000
    C25     C    0.70430   0.44443   0.12520   1.000
    C26     C    0.04570   0.55564   0.62515   1.000
    C27     C    0.54570   0.55565   0.62515   1.000
    C28     C    0.29569   0.94439   0.37470   1.000
    C29     C    0.79569   0.94440   0.37479   1.000
    C30     C    0.45429   0.05565   0.87478   1.000
    C31     C    0.95429   0.05565   0.87478   1.000
loop_
    _geom_bond_atom_site_label_1
    _geom_bond_atom_site_label_2
    _geom_bond_distance
    _geom_bond_site_symmetry_2
    _ccdc_geom_bond_type
    H6     C22       1.09650  1_545   S
    H7     C23       1.09627  1_545   S
    H8     C24       1.09639      .   S
    H9     C25       1.09640      .   S
    C28    H12       1.09654  1_565   S
    C29    H13       1.09616  1_565   S
    C18    H2        1.09639      .   S
    C19    H3        1.09638      .   S
    H5     C21       1.09626  1_565   S
    H4     C20       1.09604  1_565   S
    H11    C27       1.09638      .   S
    H10    C26       1.09637      .   S
    C16    H0        1.09618      .   S
    C17    H1        1.09642      .   S
    C31    H15       1.09629  1_545   S
    C30    H14       1.09626  1_545   S
