# CIF file generated by openbabel 2.4.90, see http://openbabel.sf.net
data_I
_chemical_name_common ''
_cell_length_a 20.472
_cell_length_b 12.631
_cell_length_c 15.386
_cell_angle_alpha 90.011
_cell_angle_beta 90.002
_cell_angle_gamma 90.012
_space_group_name_H-M_alt 'P 1'
_space_group_name_Hall 'P 1'
loop_
    _symmetry_equiv_pos_as_xyz
    x,y,z
loop_
    _atom_site_label
    _atom_site_type_symbol
    _atom_site_fract_x
    _atom_site_fract_y
    _atom_site_fract_z
    _atom_site_occupancy
    Mc0     Mc   0.00562   0.76745   0.03672   1.000
    Mc1     Mc   0.05090   0.92549   0.30164   1.000
    Mc2     Mc   0.74436   0.23253   0.53671   1.000
    Mc3     Mc   0.69914   0.07450   0.80164   1.000
    Mc4     Mc   0.24436   0.26753   0.03672   1.000
    Mc5     Mc   0.19913   0.42551   0.30166   1.000
    Mc6     Mc   0.74437   0.26753   0.03672   1.000
    Mc7     Mc   0.69914   0.42551   0.30166   1.000
    Mc8     Mc   0.30086   0.92553   0.19831   1.000
    Mc9     Mc   0.25564   0.76750   0.46324   1.000
    Mc10    Mc   0.99438   0.23259   0.96323   1.000
    Mc11    Mc   0.94910   0.07456   0.69831   1.000
    Mc12    Mc   0.24436   0.23253   0.53671   1.000
    Mc13    Mc   0.19914   0.07450   0.80161   1.000
    Mc14    Mc   0.30087   0.57452   0.69829   1.000
    Mc15    Mc   0.25564   0.73251   0.96322   1.000
    Mc16    Mc   0.94909   0.42548   0.19833   1.000
    Mc17    Mc   0.99438   0.26751   0.46324   1.000
    Mc18    Mc   0.44909   0.42547   0.19833   1.000
    Mc19    Mc   0.49438   0.26751   0.46323   1.000
    Mc20    Mc   0.80087   0.92554   0.19830   1.000
    Mc21    Mc   0.75564   0.76750   0.46324   1.000
    Mc22    Mc   0.80087   0.57453   0.69829   1.000
    Mc23    Mc   0.75564   0.73251   0.96323   1.000
    Mc24    Mc   0.44910   0.07455   0.69831   1.000
    Mc25    Mc   0.49438   0.23258   0.96322   1.000
    Mc26    Mc   0.50562   0.76745   0.03671   1.000
    Mc27    Mc   0.55091   0.92549   0.30164   1.000
    Mc28    Mc   0.50563   0.73252   0.53671   1.000
    Mc29    Mc   0.55091   0.57456   0.80160   1.000
    Mc30    Mc   0.00562   0.73253   0.53672   1.000
    Mc31    Mc   0.05091   0.57456   0.80162   1.000
