# CIF file generated by openbabel 2.4.90, see http://openbabel.sf.net
data_I
_chemical_name_common ''
_cell_length_a 20.472
_cell_length_b 12.631
_cell_length_c 15.386
_cell_angle_alpha 90.011
_cell_angle_beta 90.002
_cell_angle_gamma 90.012
_space_group_name_H-M_alt 'P 1'
_space_group_name_Hall 'P 1'
loop_
    _symmetry_equiv_pos_as_xyz
    x,y,z
loop_
    _atom_site_label
    _atom_site_type_symbol
    _atom_site_fract_x
    _atom_site_fract_y
    _atom_site_fract_z
    _atom_site_occupancy
    Cd0     Cd   0.50000   0.50002   0.99999   1.000
    Cd1     Cd   0.25000   0.50002   0.49990   1.000
    Cd2     Cd   0.75000   0.50002   0.49990   1.000
    Cd3     Cd   0.00000   0.00001   0.49998   1.000
    Cd4     Cd   0.50000   0.00001   0.49997   1.000
    Cd5     Cd   0.25000   0.00001   0.99999   1.000
    Cd6     Cd   0.75000   0.00002   0.99999   1.000
    Cd7     Cd   1.00000   0.50002   0.00000   1.000
    C8      C    0.36450   0.51108   0.90227   1.000
    C9      C    0.86450   0.51108   0.90227   1.000
    C10     C    0.38549   0.48891   0.40234   1.000
    C11     C    0.88549   0.48891   0.40234   1.000
    C12     C    0.13549   0.01110   0.59765   1.000
    C13     C    0.63549   0.01110   0.59765   1.000
    C14     C    0.11451   0.98893   0.09760   1.000
    C15     C    0.61451   0.98892   0.09764   1.000
    C16     C    0.13549   0.48894   0.09768   1.000
    C17     C    0.63549   0.48894   0.09768   1.000
    C18     C    0.11450   0.51111   0.59761   1.000
    C19     C    0.61450   0.51111   0.59761   1.000
    C20     C    0.36451   0.98892   0.40231   1.000
    C21     C    0.86451   0.98893   0.40231   1.000
    C22     C    0.38549   0.01110   0.90231   1.000
    C23     C    0.88549   0.01110   0.90231   1.000
    O24     O    0.39176   0.55542   0.96657   1.000
    O25     O    0.89176   0.55542   0.96657   1.000
    O26     O    0.38328   0.43565   0.85617   1.000
    O27     O    0.88328   0.43565   0.85617   1.000
    O28     O    0.35823   0.44457   0.46662   1.000
    O29     O    0.85823   0.44457   0.46662   1.000
    O30     O    0.36672   0.56434   0.35626   1.000
    O31     O    0.86672   0.56434   0.35627   1.000
    O32     O    0.10823   0.05543   0.53337   1.000
    O33     O    0.60823   0.05544   0.53337   1.000
    O34     O    0.11670   0.93569   0.64374   1.000
    O35     O    0.61670   0.93569   0.64374   1.000
    O36     O    0.14176   0.94458   0.03336   1.000
    O37     O    0.64176   0.94458   0.03336   1.000
    O38     O    0.13330   0.06435   0.14375   1.000
    O39     O    0.63330   0.06435   0.14374   1.000
    O40     O    0.10824   0.44459   0.03339   1.000
    O41     O    0.60823   0.44460   0.03339   1.000
    O42     O    0.11671   0.56437   0.14378   1.000
    O43     O    0.61671   0.56437   0.14378   1.000
    O44     O    0.14176   0.55544   0.53334   1.000
    O45     O    0.64176   0.55544   0.53333   1.000
    O46     O    0.13328   0.43568   0.64369   1.000
    O47     O    0.63327   0.43568   0.64369   1.000
    O48     O    0.39176   0.94458   0.46658   1.000
    O49     O    0.89176   0.94458   0.46650   1.000
    O50     O    0.38330   0.06433   0.35622   1.000
    O51     O    0.88330   0.06434   0.35622   1.000
    O52     O    0.35823   0.05544   0.96660   1.000
    O53     O    0.85823   0.05544   0.96660   1.000
    O54     O    0.36670   0.93567   0.85620   1.000
    O55     O    0.86670   0.93568   0.85620   1.000
    Ts56    Ts   0.48848   0.48332   0.04725   1.000
    Ts57    Ts   0.50305   0.56345   0.00934   1.000
    Ts58    Ts   0.51153   0.51672   0.95269   1.000
    Ts59    Ts   0.49696   0.43658   0.99063   1.000
    Ts60    Ts   0.25306   0.56347   0.49058   1.000
    Ts61    Ts   0.26150   0.51671   0.54717   1.000
    Ts62    Ts   0.24694   0.43656   0.50927   1.000
    Ts63    Ts   0.23850   0.48332   0.45268   1.000
    Ts64    Ts   0.76150   0.51671   0.54717   1.000
    Ts65    Ts   0.74694   0.43656   0.50927   1.000
    Ts66    Ts   0.73850   0.48333   0.45268   1.000
    Ts67    Ts   0.75306   0.56347   0.49058   1.000
    Ts68    Ts   0.99695   0.06347   0.49063   1.000
    Ts69    Ts   0.01152   0.98332   0.45272   1.000
    Ts70    Ts   0.00305   0.93656   0.50933   1.000
    Ts71    Ts   0.98848   0.01671   0.54722   1.000
    Ts72    Ts   0.49695   0.06347   0.49062   1.000
    Ts73    Ts   0.51152   0.98332   0.45272   1.000
    Ts74    Ts   0.50305   0.93656   0.50931   1.000
    Ts75    Ts   0.48848   0.01671   0.54723   1.000
    Ts76    Ts   0.25305   0.93656   0.99063   1.000
    Ts77    Ts   0.23850   0.01669   0.95266   1.000
    Ts78    Ts   0.24695   0.06348   0.00934   1.000
    Ts79    Ts   0.26150   0.98334   0.04724   1.000
    Ts80    Ts   0.75306   0.93656   0.99063   1.000
    Ts81    Ts   0.73850   0.01669   0.95272   1.000
    Ts82    Ts   0.74695   0.06348   0.00934   1.000
    Ts83    Ts   0.76151   0.98334   0.04723   1.000
    Ts84    Ts   0.98847   0.48332   0.04726   1.000
    Ts85    Ts   0.00305   0.56345   0.00935   1.000
    Ts86    Ts   0.01152   0.51672   0.95273   1.000
    Ts87    Ts   0.99695   0.43659   0.99064   1.000
    Og88    Og   0.34157   0.52592   0.89310   1.000
    Og89    Og   0.84157   0.52592   0.89310   1.000
    Og90    Og   0.40843   0.47407   0.39316   1.000
    Og91    Og   0.90843   0.47407   0.39316   1.000
    Og92    Og   0.15843   0.02595   0.60680   1.000
    Og93    Og   0.65843   0.02595   0.60682   1.000
    Og94    Og   0.09158   0.97408   0.10679   1.000
    Og95    Og   0.59158   0.97408   0.10682   1.000
    Og96    Og   0.15843   0.47411   0.10685   1.000
    Og97    Og   0.65843   0.47410   0.10685   1.000
    Og98    Og   0.09157   0.52595   0.60679   1.000
    Og99    Og   0.59157   0.52596   0.60679   1.000
    Og100   Og   0.34157   0.97408   0.39311   1.000
    Og101   Og   0.84157   0.97408   0.39314   1.000
    Og102   Og   0.40842   0.02595   0.89313   1.000
    Og103   Og   0.90842   0.02595   0.89313   1.000
loop_
    _geom_bond_atom_site_label_1
    _geom_bond_atom_site_label_2
    _geom_bond_distance
    _geom_bond_site_symmetry_2
    _ccdc_geom_bond_type
    O37    C15       1.26614      .   S
    O37    Cd6       2.37979  1_564   S
    O36    C14       1.26569      .   S
    O36    Cd5       2.37975  1_564   S
    O41    C17       1.26616      .   S
    O41    Cd0       2.37998  1_554   S
    O40    C16       1.26618      .   S
    O40    Cd7       2.38009  1_455   S
    C14    O38       1.24874  1_565   S
    C15    O39       1.24833  1_565   S
    C17    O43       1.24843      .   S
    C16    O42       1.24842      .   S
    O51    C21       1.24831  1_545   S
    O50    C20       1.24830  1_545   S
    O30    C10       1.24845      .   S
    O31    C11       1.24834      .   S
    C20    O48       1.26617      .   S
    C21    O49       1.26519      .   S
    C11    O29       1.26629      .   S
    C10    O28       1.26624      .   S
    O49    Cd3       2.38011  1_665   S
    O48    Cd4       2.37970  1_565   S
    O28    Cd1       2.37968      .   S
    O29    Cd2       2.37965      .   S
    Cd1    O44       2.38020      .   S
    Cd2    O45       2.38019      .   S
    Cd4    O33       2.37963      .   S
    Cd3    O32       2.37959      .   S
    O45    C19       1.26621      .   S
    O44    C18       1.26613      .   S
    O32    C12       1.26625      .   S
    O33    C13       1.26625      .   S
    C18    O46       1.24839      .   S
    C19    O47       1.24842      .   S
    C12    O34       1.24828  1_545   S
    C13    O35       1.24829  1_545   S
    O27    C9        1.24839      .   S
    O26    C8        1.24839      .   S
    O54    C22       1.24839  1_565   S
    O55    C23       1.24837  1_565   S
    C8     O24       1.26627      .   S
    C9     O25       1.26625      .   S
    C22    O52       1.26622      .   S
    C23    O53       1.26625      .   S
    O25    Cd7       2.38010  1_556   S
    O24    Cd0       2.38014      .   S
    O53    Cd6       2.37964      .   S
    O52    Cd5       2.37968      .   S
    Cd0    Ts56      0.79301  1_556   S
    Cd0    Ts57      0.81638  1_556   S
    Cd0    Ts58      0.79357      .   S
    Cd0    Ts59      0.81643      .   S
    Cd1    Ts60      0.81662      .   S
    Cd1    Ts61      0.79300      .   S
    Cd1    Ts62      0.81675      .   S
    Cd1    Ts63      0.79230      .   S
    Cd2    Ts64      0.79301      .   S
    Cd2    Ts65      0.81675      .   S
    Cd2    Ts66      0.79229      .   S
    Cd2    Ts67      0.81662      .   S
    Cd3    Ts68      0.81672  1_455   S
    Cd3    Ts69      0.79296  1_545   S
    Cd3    Ts70      0.81667  1_545   S
    Cd3    Ts71      0.79270  1_455   S
    Cd4    Ts72      0.81672      .   S
    Cd4    Ts73      0.79288  1_545   S
    Cd4    Ts74      0.81665  1_545   S
    Cd4    Ts75      0.79293      .   S
    Cd5    Ts76      0.81677  1_545   S
    Cd5    Ts77      0.79386      .   S
    Cd5    Ts78      0.81676  1_556   S
    Cd5    Ts79      0.79277  1_546   S
    Cd6    Ts80      0.81676  1_545   S
    Cd6    Ts81      0.79296      .   S
    Cd6    Ts82      0.81675  1_556   S
    Cd6    Ts83      0.79253  1_546   S
    Cd7    Ts84      0.79300      .   S
    Cd7    Ts85      0.81637  1_655   S
    Cd7    Ts86      0.79320  1_654   S
    Cd7    Ts87      0.81643  1_554   S
    C8     Og88      0.52493      .   S
    C9     Og89      0.52493      .   S
    C10    Og90      0.52494      .   S
    C11    Og91      0.52493      .   S
    C12    Og92      0.52485      .   S
    C13    Og93      0.52494      .   S
    C14    Og94      0.52499      .   S
    C15    Og95      0.52492      .   S
    C16    Og96      0.52494      .   S
    C17    Og97      0.52495      .   S
    C18    Og98      0.52494      .   S
    C19    Og99      0.52494      .   S
    C20    Og100     0.52506      .   S
    C21    Og101     0.52493      .   S
    C22    Og102     0.52494      .   S
    C23    Og103     0.52494      .   S
