# CIF file generated by openbabel 2.4.90, see http://openbabel.sf.net
data_I
_chemical_name_common ''
_cell_length_a 20.472
_cell_length_b 12.631
_cell_length_c 15.386
_cell_angle_alpha 90.011
_cell_angle_beta 90.002
_cell_angle_gamma 90.012
_space_group_name_H-M_alt 'P 1'
_space_group_name_Hall 'P 1'
loop_
    _symmetry_equiv_pos_as_xyz
    x,y,z
loop_
    _atom_site_label
    _atom_site_type_symbol
    _atom_site_fract_x
    _atom_site_fract_y
    _atom_site_fract_z
    _atom_site_occupancy
    C0      C    1.00000   0.50002   0.00000   1.000
    C1      C    0.50000   0.50002   0.99999   1.000
    C2      C    0.25000   0.50002   0.49990   1.000
    C3      C    0.75000   0.50002   0.49990   1.000
    C4      C    0.00000   0.00001   0.49998   1.000
    C5      C    0.50000   0.00001   0.49997   1.000
    C6      C    0.25000   0.00001   0.99999   1.000
    C7      C    0.75000   0.00002   0.99999   1.000
    C8      C    0.18813   0.75819   0.06706   1.000
    C9      C    0.68814   0.75819   0.06706   1.000
    C10     C    0.32714   0.78239   0.86736   1.000
    C11     C    0.82715   0.78239   0.86736   1.000
    C12     C    0.26009   0.49350   0.89000   1.000
    C13     C    0.76009   0.49351   0.89007   1.000
    C14     C    0.21862   0.47307   0.73064   1.000
    C15     C    0.71862   0.47307   0.73064   1.000
    C16     C    0.36582   0.65263   0.61031   1.000
    C17     C    0.86582   0.65263   0.61031   1.000
    C18     C    0.06188   0.24188   0.56706   1.000
    C19     C    0.56188   0.24188   0.56705   1.000
    C20     C    0.42287   0.21759   0.36736   1.000
    C21     C    0.92288   0.21759   0.36736   1.000
    C22     C    0.48991   0.50649   0.39012   1.000
    C23     C    0.98991   0.50650   0.39013   1.000
    C24     C    0.03132   0.52699   0.23071   1.000
    C25     C    0.53131   0.52698   0.23070   1.000
    C26     C    0.38413   0.34734   0.11035   1.000
    C27     C    0.88413   0.34734   0.11030   1.000
    C28     C    0.31186   0.25822   0.43289   1.000
    C29     C    0.81187   0.25822   0.43290   1.000
    C30     C    0.17284   0.28240   0.63256   1.000
    C31     C    0.67284   0.28240   0.63256   1.000
    C32     C    0.23990   0.99356   0.60983   1.000
    C33     C    0.73990   0.99355   0.60982   1.000
    C34     C    0.28137   0.97309   0.76923   1.000
    C35     C    0.78137   0.97309   0.76923   1.000
    C36     C    0.13418   0.15254   0.88966   1.000
    C37     C    0.63419   0.15254   0.88966   1.000
    C38     C    0.43812   0.74171   0.93280   1.000
    C39     C    0.93812   0.74171   0.93287   1.000
    C40     C    0.07712   0.71761   0.13261   1.000
    C41     C    0.57712   0.71761   0.13260   1.000
    C42     C    0.01010   0.00646   0.10980   1.000
    C43     C    0.51010   0.00646   0.10986   1.000
    C44     C    0.46871   0.02699   0.26928   1.000
    C45     C    0.96870   0.02700   0.26929   1.000
    C46     C    0.11583   0.84735   0.38960   1.000
    C47     C    0.61584   0.84735   0.38961   1.000
    C48     C    0.31187   0.24185   0.93289   1.000
    C49     C    0.81187   0.24185   0.93289   1.000
    C50     C    0.17286   0.21765   0.13259   1.000
    C51     C    0.67286   0.21765   0.13259   1.000
    C52     C    0.23991   0.50653   0.10988   1.000
    C53     C    0.73991   0.50653   0.10988   1.000
    C54     C    0.28138   0.52697   0.26931   1.000
    C55     C    0.78138   0.52698   0.26931   1.000
    C56     C    0.13418   0.34741   0.38964   1.000
    C57     C    0.63419   0.34740   0.38964   1.000
    C58     C    0.43812   0.75816   0.43289   1.000
    C59     C    0.93811   0.75816   0.43290   1.000
    C60     C    0.07713   0.78245   0.63260   1.000
    C61     C    0.57713   0.78245   0.63259   1.000
    C62     C    0.01009   0.49354   0.60983   1.000
    C63     C    0.51009   0.49354   0.60983   1.000
    C64     C    0.46869   0.47305   0.76924   1.000
    C65     C    0.96868   0.47305   0.76925   1.000
    C66     C    0.11588   0.65270   0.88960   1.000
    C67     C    0.61587   0.65270   0.88960   1.000
    C68     C    0.18814   0.74181   0.56706   1.000
    C69     C    0.68814   0.74181   0.56706   1.000
    C70     C    0.32716   0.71764   0.36739   1.000
    C71     C    0.82716   0.71764   0.36739   1.000
    C72     C    0.26010   0.00648   0.39012   1.000
    C73     C    0.76010   0.00648   0.39010   1.000
    C74     C    0.21863   0.02695   0.23072   1.000
    C75     C    0.71863   0.02696   0.23072   1.000
    C76     C    0.36582   0.84750   0.11029   1.000
    C77     C    0.86582   0.84751   0.11029   1.000
    C78     C    0.06188   0.25832   0.06709   1.000
    C79     C    0.56189   0.25832   0.06707   1.000
    C80     C    0.42288   0.28242   0.86735   1.000
    C81     C    0.92288   0.28243   0.86730   1.000
    C82     C    0.48989   0.99357   0.89009   1.000
    C83     C    0.98990   0.99358   0.89010   1.000
    C84     C    0.03130   0.97303   0.73067   1.000
    C85     C    0.53129   0.97304   0.73067   1.000
    C86     C    0.38417   0.15269   0.61034   1.000
    C87     C    0.88418   0.15271   0.61035   1.000
    C88     C    0.22134   0.73729   0.01502   1.000
    C89     C    0.72134   0.73729   0.01502   1.000
    C90     C    0.29196   0.75179   0.91362   1.000
    C91     C    0.79196   0.75179   0.91362   1.000
    C92     C    0.29570   0.55560   0.87475   1.000
    C93     C    0.79570   0.55560   0.87475   1.000
    C94     C    0.36450   0.51108   0.90227   1.000
    C95     C    0.86450   0.51108   0.90227   1.000
    C96     C    0.26071   0.52356   0.71943   1.000
    C97     C    0.76072   0.52356   0.71943   1.000
    C98     C    0.33552   0.61677   0.66009   1.000
    C99     C    0.83552   0.61678   0.66009   1.000
    C100    C    0.02868   0.26275   0.51502   1.000
    C101    C    0.52868   0.26275   0.51501   1.000
    C102    C    0.45806   0.24820   0.41360   1.000
    C103    C    0.95806   0.24820   0.41363   1.000
    C104    C    0.45430   0.44439   0.37480   1.000
    C105    C    0.95430   0.44439   0.37481   1.000
    C106    C    0.38549   0.48891   0.40234   1.000
    C107    C    0.88549   0.48891   0.40234   1.000
    C108    C    0.48923   0.47645   0.21948   1.000
    C109    C    0.98923   0.47646   0.21949   1.000
    C110    C    0.41444   0.38321   0.16013   1.000
    C111    C    0.91444   0.38322   0.16013   1.000
    C112    C    0.27866   0.23731   0.48494   1.000
    C113    C    0.77867   0.23732   0.48494   1.000
    C114    C    0.20803   0.25181   0.58631   1.000
    C115    C    0.70803   0.25181   0.58631   1.000
    C116    C    0.20431   0.05564   0.62510   1.000
    C117    C    0.70431   0.05564   0.62516   1.000
    C118    C    0.13549   0.01110   0.59765   1.000
    C119    C    0.63549   0.01110   0.59765   1.000
    C120    C    0.23928   0.02356   0.78047   1.000
    C121    C    0.73928   0.02356   0.78047   1.000
    C122    C    0.16449   0.11672   0.83986   1.000
    C123    C    0.66450   0.11672   0.83986   1.000
    C124    C    0.47132   0.76264   0.98492   1.000
    C125    C    0.97132   0.76264   0.98492   1.000
    C126    C    0.04194   0.74819   0.08635   1.000
    C127    C    0.54194   0.74819   0.08634   1.000
    C128    C    0.04571   0.94439   0.12518   1.000
    C129    C    0.54570   0.94438   0.12517   1.000
    C130    C    0.11451   0.98893   0.09760   1.000
    C131    C    0.61451   0.98892   0.09764   1.000
    C132    C    0.01077   0.97647   0.28050   1.000
    C133    C    0.51077   0.97647   0.28050   1.000
    C134    C    0.08554   0.88323   0.33984   1.000
    C135    C    0.58554   0.88323   0.33984   1.000
    C136    C    0.27866   0.26275   0.98493   1.000
    C137    C    0.77867   0.26275   0.98493   1.000
    C138    C    0.20804   0.24824   0.08633   1.000
    C139    C    0.70804   0.24825   0.08633   1.000
    C140    C    0.20430   0.44443   0.12520   1.000
    C141    C    0.70430   0.44443   0.12520   1.000
    C142    C    0.13549   0.48894   0.09768   1.000
    C143    C    0.63549   0.48894   0.09768   1.000
    C144    C    0.23928   0.47648   0.28052   1.000
    C145    C    0.73929   0.47648   0.28052   1.000
    C146    C    0.16448   0.38326   0.33986   1.000
    C147    C    0.66449   0.38326   0.33986   1.000
    C148    C    0.47133   0.73728   0.48494   1.000
    C149    C    0.97132   0.73728   0.48494   1.000
    C150    C    0.04194   0.75184   0.58633   1.000
    C151    C    0.54194   0.75183   0.58632   1.000
    C152    C    0.04570   0.55564   0.62515   1.000
    C153    C    0.54570   0.55565   0.62515   1.000
    C154    C    0.11450   0.51111   0.59761   1.000
    C155    C    0.61450   0.51111   0.59761   1.000
    C156    C    0.01077   0.52358   0.78047   1.000
    C157    C    0.51077   0.52358   0.78047   1.000
    C158    C    0.08556   0.61682   0.83983   1.000
    C159    C    0.58556   0.61682   0.83982   1.000
    C160    C    0.22134   0.76272   0.51501   1.000
    C161    C    0.72134   0.76272   0.51501   1.000
    C162    C    0.29196   0.74822   0.41364   1.000
    C163    C    0.79197   0.74822   0.41364   1.000
    C164    C    0.29569   0.94439   0.37470   1.000
    C165    C    0.79569   0.94440   0.37479   1.000
    C166    C    0.36451   0.98892   0.40231   1.000
    C167    C    0.86451   0.98893   0.40231   1.000
    C168    C    0.26071   0.97647   0.21948   1.000
    C169    C    0.76072   0.97648   0.21948   1.000
    C170    C    0.33551   0.88332   0.16009   1.000
    C171    C    0.83551   0.88333   0.16009   1.000
    C172    C    0.02868   0.23739   0.01504   1.000
    C173    C    0.52868   0.23739   0.01503   1.000
    C174    C    0.45806   0.25185   0.91361   1.000
    C175    C    0.95806   0.25185   0.91361   1.000
    C176    C    0.45429   0.05565   0.87478   1.000
    C177    C    0.95429   0.05565   0.87478   1.000
    C178    C    0.38549   0.01110   0.90231   1.000
    C179    C    0.88549   0.01110   0.90231   1.000
    C180    C    0.48923   0.02357   0.71945   1.000
    C181    C    0.98923   0.02357   0.71946   1.000
    C182    C    0.41447   0.11681   0.66011   1.000
    C183    C    0.91447   0.11683   0.66012   1.000
    C184    C    0.27350   0.64957   0.92117   1.000
    C185    C    0.77351   0.64957   0.92117   1.000
    C186    C    0.22821   0.63868   0.98643   1.000
    C187    C    0.72822   0.63868   0.98644   1.000
    C188    C    0.25916   0.80964   0.97190   1.000
    C189    C    0.75916   0.80964   0.97192   1.000
    C190    C    0.29604   0.57295   0.78146   1.000
    C191    C    0.79604   0.57296   0.78147   1.000
    C192    C    0.34486   0.63259   0.74437   1.000
    C193    C    0.84486   0.63260   0.74437   1.000
    C194    C    0.28451   0.55009   0.64172   1.000
    C195    C    0.78451   0.55010   0.64172   1.000
    C196    C    0.47650   0.35043   0.42119   1.000
    C197    C    0.97650   0.35043   0.42120   1.000
    C198    C    0.02179   0.36135   0.48648   1.000
    C199    C    0.52179   0.36135   0.48647   1.000
    C200    C    0.49086   0.19037   0.47192   1.000
    C201    C    0.99086   0.19037   0.47193   1.000
    C202    C    0.45394   0.42703   0.28151   1.000
    C203    C    0.95394   0.42703   0.28152   1.000
    C204    C    0.40513   0.36737   0.24440   1.000
    C205    C    0.90513   0.36738   0.24441   1.000
    C206    C    0.46543   0.44992   0.14176   1.000
    C207    C    0.96542   0.44993   0.14177   1.000
    C208    C    0.22651   0.14960   0.57877   1.000
    C209    C    0.72651   0.14960   0.57877   1.000
    C210    C    0.27179   0.13872   0.51350   1.000
    C211    C    0.77180   0.13872   0.51350   1.000
    C212    C    0.24082   0.30966   0.52800   1.000
    C213    C    0.74082   0.30966   0.52800   1.000
    C214    C    0.20397   0.07299   0.71846   1.000
    C215    C    0.70398   0.07298   0.71846   1.000
    C216    C    0.15516   0.13258   0.75559   1.000
    C217    C    0.65517   0.13259   0.75559   1.000
    C218    C    0.21549   0.05005   0.85800   1.000
    C219    C    0.71549   0.05005   0.85819   1.000
    C220    C    0.02350   0.85040   0.07878   1.000
    C221    C    0.52350   0.85040   0.07877   1.000
    C222    C    0.47822   0.86126   0.01349   1.000
    C223    C    0.97821   0.86126   0.01349   1.000
    C224    C    0.00914   0.69032   0.02804   1.000
    C225    C    0.50914   0.69032   0.02804   1.000
    C226    C    0.04606   0.92704   0.21847   1.000
    C227    C    0.54606   0.92704   0.21846   1.000
    C228    C    0.09486   0.86739   0.25556   1.000
    C229    C    0.59486   0.86739   0.25556   1.000
    C230    C    0.03456   0.94994   0.35820   1.000
    C231    C    0.53457   0.94994   0.35821   1.000
    C232    C    0.22650   0.35047   0.07878   1.000
    C233    C    0.72650   0.35047   0.07878   1.000
    C234    C    0.27178   0.36136   0.01351   1.000
    C235    C    0.77179   0.36136   0.01351   1.000
    C236    C    0.24084   0.19040   0.02803   1.000
    C237    C    0.74084   0.19040   0.02803   1.000
    C238    C    0.20396   0.42708   0.21849   1.000
    C239    C    0.70396   0.42708   0.21849   1.000
    C240    C    0.15515   0.36744   0.25558   1.000
    C241    C    0.65515   0.36744   0.25558   1.000
    C242    C    0.21549   0.44994   0.35823   1.000
    C243    C    0.71549   0.44994   0.35823   1.000
    C244    C    0.02350   0.64960   0.57876   1.000
    C245    C    0.52350   0.64960   0.57875   1.000
    C246    C    0.47822   0.63869   0.51347   1.000
    C247    C    0.97821   0.63869   0.51348   1.000
    C248    C    0.00914   0.80966   0.52803   1.000
    C249    C    0.50914   0.80966   0.52800   1.000
    C250    C    0.04606   0.57301   0.71844   1.000
    C251    C    0.54606   0.57301   0.71844   1.000
    C252    C    0.09488   0.63266   0.75555   1.000
    C253    C    0.59487   0.63266   0.75555   1.000
    C254    C    0.03458   0.55011   0.85819   1.000
    C255    C    0.53457   0.55011   0.85810   1.000
    C256    C    0.27349   0.85043   0.42118   1.000
    C257    C    0.77349   0.85043   0.42118   1.000
    C258    C    0.22820   0.86131   0.48645   1.000
    C259    C    0.72820   0.86131   0.48645   1.000
    C260    C    0.25918   0.69038   0.47195   1.000
    C261    C    0.75918   0.69038   0.47195   1.000
    C262    C    0.29602   0.92705   0.28149   1.000
    C263    C    0.79603   0.92705   0.28149   1.000
    C264    C    0.34484   0.86746   0.24436   1.000
    C265    C    0.84484   0.86746   0.24436   1.000
    C266    C    0.28451   0.94999   0.14175   1.000
    C267    C    0.78451   0.95000   0.14170   1.000
    C268    C    0.47650   0.14963   0.92118   1.000
    C269    C    0.97649   0.14963   0.92119   1.000
    C270    C    0.02179   0.13877   0.98647   1.000
    C271    C    0.52179   0.13877   0.98640   1.000
    C272    C    0.49086   0.30971   0.97191   1.000
    C273    C    0.99086   0.30972   0.97192   1.000
    C274    C    0.45394   0.07299   0.78149   1.000
    C275    C    0.95394   0.07300   0.78149   1.000
    C276    C    0.40514   0.13265   0.74439   1.000
    C277    C    0.90515   0.13266   0.74440   1.000
    C278    C    0.46544   0.05010   0.64174   1.000
    C279    C    0.96544   0.05011   0.64170   1.000
    C280    C    0.39176   0.55542   0.96657   1.000
    C281    C    0.89176   0.55542   0.96657   1.000
    C282    C    0.38328   0.43565   0.85617   1.000
    C283    C    0.88328   0.43565   0.85617   1.000
    C284    C    0.35823   0.44457   0.46662   1.000
    C285    C    0.85823   0.44457   0.46662   1.000
    C286    C    0.36672   0.56434   0.35626   1.000
    C287    C    0.86672   0.56434   0.35627   1.000
    C288    C    0.10823   0.05543   0.53337   1.000
    C289    C    0.60823   0.05544   0.53337   1.000
    C290    C    0.11670   0.93569   0.64374   1.000
    C291    C    0.61670   0.93569   0.64374   1.000
    C292    C    0.14176   0.94458   0.03336   1.000
    C293    C    0.64176   0.94458   0.03336   1.000
    C294    C    0.13330   0.06435   0.14375   1.000
    C295    C    0.63330   0.06435   0.14374   1.000
    C296    C    0.10824   0.44459   0.03339   1.000
    C297    C    0.60823   0.44460   0.03339   1.000
    C298    C    0.11671   0.56437   0.14378   1.000
    C299    C    0.61671   0.56437   0.14378   1.000
    C300    C    0.14176   0.55544   0.53334   1.000
    C301    C    0.64176   0.55544   0.53333   1.000
    C302    C    0.13328   0.43568   0.64369   1.000
    C303    C    0.63327   0.43568   0.64369   1.000
    C304    C    0.39176   0.94458   0.46658   1.000
    C305    C    0.89176   0.94458   0.46650   1.000
    C306    C    0.38330   0.06433   0.35622   1.000
    C307    C    0.88330   0.06434   0.35622   1.000
    C308    C    0.35823   0.05544   0.96660   1.000
    C309    C    0.85823   0.05544   0.96660   1.000
    C310    C    0.36670   0.93567   0.85620   1.000
    C311    C    0.86670   0.93568   0.85620   1.000
    O312    O    0.00086   0.85583   0.04614   1.000
    O313    O    0.97476   0.81195   0.99921   1.000
    O314    O    0.50086   0.85583   0.04613   1.000
    O315    O    0.47477   0.81195   0.99921   1.000
    O316    O    0.24914   0.35591   0.04615   1.000
    O317    O    0.27522   0.31205   0.99922   1.000
    O318    O    0.74914   0.35592   0.04615   1.000
    O319    O    0.77523   0.31205   0.99922   1.000
    O320    O    0.20473   0.74774   0.04104   1.000
    O321    O    0.24025   0.77346   0.99346   1.000
    O322    O    0.22477   0.68798   0.00073   1.000
    O323    O    0.70474   0.74774   0.04104   1.000
    O324    O    0.74025   0.77347   0.99347   1.000
    O325    O    0.72478   0.68799   0.00073   1.000
    O326    O    0.54529   0.24786   0.04105   1.000
    O327    O    0.50977   0.27355   0.99347   1.000
    O328    O    0.52524   0.18808   0.00072   1.000
    O329    O    0.04528   0.24786   0.04106   1.000
    O330    O    0.00977   0.27355   0.99348   1.000
    O331    O    0.02524   0.18808   0.00076   1.000
    O332    O    0.22444   0.21932   0.05718   1.000
    O333    O    0.25975   0.22657   0.00648   1.000
    O334    O    0.24542   0.09521   0.01401   1.000
    O335    O    0.72444   0.21932   0.05718   1.000
    O336    O    0.75975   0.22657   0.00648   1.000
    O337    O    0.74542   0.09521   0.01401   1.000
    O338    O    0.52554   0.71925   0.05719   1.000
    O339    O    0.49023   0.72648   0.00648   1.000
    O340    O    0.50457   0.59517   0.01402   1.000
    O341    O    0.02554   0.71925   0.05720   1.000
    O342    O    0.99023   0.72648   0.00648   1.000
    O343    O    0.00457   0.59517   0.01402   1.000
    O344    O    0.62814   0.96675   0.06550   1.000
    O345    O    0.69588   0.97230   0.01668   1.000
    O346    O    0.12814   0.96675   0.06548   1.000
    O347    O    0.19588   0.97230   0.01668   1.000
    O348    O    0.62186   0.46677   0.06554   1.000
    O349    O    0.55412   0.47231   0.01669   1.000
    O350    O    0.12186   0.46677   0.06554   1.000
    O351    O    0.05412   0.47231   0.01669   1.000
    O352    O    0.53272   0.79929   0.08256   1.000
    O353    O    0.53460   0.89739   0.10197   1.000
    O354    O    0.71727   0.29936   0.08256   1.000
    O355    O    0.71540   0.39745   0.10199   1.000
    O356    O    0.21727   0.29936   0.08256   1.000
    O357    O    0.21540   0.39745   0.10199   1.000
    O358    O    0.03272   0.79929   0.08257   1.000
    O359    O    0.03460   0.89739   0.10198   1.000
    O360    O    0.69045   0.23295   0.10946   1.000
    O361    O    0.19045   0.23295   0.10946   1.000
    O362    O    0.55953   0.73290   0.10947   1.000
    O363    O    0.05953   0.73290   0.10948   1.000
    O364    O    0.08011   0.96666   0.11139   1.000
    O365    O    0.12391   0.02664   0.12068   1.000
    O366    O    0.58011   0.96665   0.11141   1.000
    O367    O    0.62390   0.02664   0.12069   1.000
    O368    O    0.66990   0.46669   0.11144   1.000
    O369    O    0.62610   0.52666   0.12073   1.000
    O370    O    0.16990   0.46669   0.11144   1.000
    O371    O    0.12610   0.52666   0.12073   1.000
    O372    O    0.02790   0.97542   0.11749   1.000
    O373    O    0.52790   0.97542   0.11752   1.000
    O374    O    0.22211   0.47548   0.11754   1.000
    O375    O    0.72211   0.47548   0.11754   1.000
    O376    O    0.35066   0.86541   0.13519   1.000
    O377    O    0.85066   0.86542   0.13519   1.000
    O378    O    0.89929   0.36528   0.13521   1.000
    O379    O    0.39928   0.36527   0.13524   1.000
    O380    O    0.54588   0.93571   0.17181   1.000
    O381    O    0.04588   0.93571   0.17183   1.000
    O382    O    0.20413   0.43576   0.17185   1.000
    O383    O    0.70413   0.43576   0.17185   1.000
    O384    O    0.81001   0.91666   0.15090   1.000
    O385    O    0.77262   0.96324   0.18059   1.000
    O386    O    0.76726   0.97501   0.07085   1.000
    O387    O    0.31001   0.91666   0.15092   1.000
    O388    O    0.27261   0.96323   0.18061   1.000
    O389    O    0.26726   0.97500   0.07087   1.000
    O390    O    0.43993   0.41657   0.15095   1.000
    O391    O    0.47733   0.46319   0.18062   1.000
    O392    O    0.48271   0.47497   0.07088   1.000
    O393    O    0.93993   0.41657   0.15095   1.000
    O394    O    0.97733   0.46320   0.18063   1.000
    O395    O    0.98271   0.47498   0.07089   1.000
    O396    O    0.34017   0.87539   0.20223   1.000
    O397    O    0.84017   0.87539   0.20223   1.000
    O398    O    0.90978   0.37530   0.20227   1.000
    O399    O    0.40978   0.37529   0.20227   1.000
    O400    O    0.57046   0.89722   0.23701   1.000
    O401    O    0.52842   0.95175   0.24948   1.000
    O402    O    0.07046   0.89722   0.23702   1.000
    O403    O    0.02842   0.95175   0.24949   1.000
    O404    O    0.67956   0.39726   0.23704   1.000
    O405    O    0.72163   0.45178   0.24951   1.000
    O406    O    0.17955   0.39726   0.23704   1.000
    O407    O    0.22162   0.45178   0.24951   1.000
    O408    O    0.73967   0.00171   0.22510   1.000
    O409    O    0.77837   0.95176   0.25049   1.000
    O410    O    0.23967   0.00171   0.22510   1.000
    O411    O    0.27837   0.95176   0.25049   1.000
    O412    O    0.51027   0.50172   0.22509   1.000
    O413    O    0.47159   0.45174   0.25049   1.000
    O414    O    0.01028   0.50173   0.22510   1.000
    O415    O    0.97159   0.45174   0.25051   1.000
    O416    O    0.82043   0.89726   0.26293   1.000
    O417    O    0.32043   0.89725   0.26293   1.000
    O418    O    0.42953   0.39720   0.26295   1.000
    O419    O    0.92953   0.39720   0.26297   1.000
    O420    O    0.59020   0.87531   0.29770   1.000
    O421    O    0.09020   0.87531   0.29770   1.000
    O422    O    0.65982   0.37535   0.29772   1.000
    O423    O    0.15982   0.37535   0.29772   1.000
    O424    O    0.48974   0.00173   0.27489   1.000
    O425    O    0.98974   0.00173   0.27490   1.000
    O426    O    0.76034   0.50173   0.27491   1.000
    O427    O    0.26033   0.50172   0.27491   1.000
    O428    O    0.02267   0.96320   0.31935   1.000
    O429    O    0.52267   0.96320   0.31935   1.000
    O430    O    0.22739   0.46321   0.31938   1.000
    O431    O    0.72739   0.46321   0.31938   1.000
    O432    O    0.79586   0.93573   0.32814   1.000
    O433    O    0.29586   0.93572   0.32810   1.000
    O434    O    0.45412   0.43571   0.32815   1.000
    O435    O    0.95412   0.43571   0.32817   1.000
    O436    O    0.06005   0.91658   0.34902   1.000
    O437    O    0.10068   0.86529   0.36472   1.000
    O438    O    0.56005   0.91658   0.34902   1.000
    O439    O    0.60069   0.86529   0.36473   1.000
    O440    O    0.68999   0.41660   0.34905   1.000
    O441    O    0.64934   0.36533   0.36475   1.000
    O442    O    0.18999   0.41660   0.34905   1.000
    O443    O    0.14933   0.36533   0.36475   1.000
    O444    O    0.87390   0.02663   0.37927   1.000
    O445    O    0.37390   0.02663   0.37927   1.000
    O446    O    0.37611   0.52663   0.37930   1.000
    O447    O    0.87611   0.52663   0.37931   1.000
    O448    O    0.01728   0.97498   0.42909   1.000
    O449    O    0.51728   0.97497   0.42909   1.000
    O450    O    0.23274   0.47498   0.42906   1.000
    O451    O    0.73275   0.47498   0.42906   1.000
    O452    O    0.94047   0.23290   0.39050   1.000
    O453    O    0.44047   0.23289   0.39048   1.000
    O454    O    0.30956   0.73293   0.39052   1.000
    O455    O    0.80956   0.73293   0.39052   1.000
    O456    O    0.27789   0.97544   0.38241   1.000
    O457    O    0.33010   0.96666   0.38850   1.000
    O458    O    0.28459   0.89741   0.39794   1.000
    O459    O    0.77789   0.97544   0.38245   1.000
    O460    O    0.83010   0.96666   0.38855   1.000
    O461    O    0.78459   0.89741   0.39799   1.000
    O462    O    0.47210   0.47544   0.38246   1.000
    O463    O    0.41990   0.46665   0.38857   1.000
    O464    O    0.46540   0.39741   0.39800   1.000
    O465    O    0.97210   0.47545   0.38247   1.000
    O466    O    0.91990   0.46665   0.38858   1.000
    O467    O    0.96540   0.39741   0.39800   1.000
    O468    O    0.37814   0.96675   0.43445   1.000
    O469    O    0.87813   0.96675   0.43441   1.000
    O470    O    0.87186   0.46674   0.43448   1.000
    O471    O    0.37186   0.46674   0.43448   1.000
    O472    O    0.46728   0.29932   0.41740   1.000
    O473    O    0.47446   0.21929   0.44276   1.000
    O474    O    0.96728   0.29932   0.41741   1.000
    O475    O    0.97446   0.21929   0.44278   1.000
    O476    O    0.28273   0.79932   0.41741   1.000
    O477    O    0.27557   0.71930   0.44280   1.000
    O478    O    0.78273   0.79933   0.41741   1.000
    O479    O    0.77557   0.71930   0.44280   1.000
    O480    O    0.75085   0.85587   0.45382   1.000
    O481    O    0.25085   0.85587   0.45382   1.000
    O482    O    0.49914   0.35589   0.45383   1.000
    O483    O    0.99914   0.35589   0.45384   1.000
    O484    O    0.29526   0.24777   0.45892   1.000
    O485    O    0.45472   0.74772   0.45892   1.000
    O486    O    0.79526   0.24777   0.45892   1.000
    O487    O    0.95472   0.74772   0.45892   1.000
    O488    O    0.94588   0.97230   0.48324   1.000
    O489    O    0.44588   0.97230   0.48328   1.000
    O490    O    0.30412   0.47229   0.48326   1.000
    O491    O    0.80412   0.47229   0.48326   1.000
    O492    O    0.49543   0.09519   0.48595   1.000
    O493    O    0.50977   0.22656   0.49347   1.000
    O494    O    0.99543   0.09519   0.48596   1.000
    O495    O    0.00977   0.22656   0.49347   1.000
    O496    O    0.75459   0.59520   0.48592   1.000
    O497    O    0.74026   0.72655   0.49348   1.000
    O498    O    0.25459   0.59520   0.48592   1.000
    O499    O    0.24026   0.72655   0.49348   1.000
    O500    O    0.27523   0.18802   0.49922   1.000
    O501    O    0.25974   0.27349   0.50647   1.000
    O502    O    0.97477   0.68799   0.49921   1.000
    O503    O    0.99023   0.77347   0.50649   1.000
    O504    O    0.47477   0.68798   0.49921   1.000
    O505    O    0.49023   0.77347   0.50647   1.000
    O506    O    0.77523   0.18802   0.49922   1.000
    O507    O    0.75974   0.27349   0.50647   1.000
    O508    O    0.22477   0.81202   0.50073   1.000
    O509    O    0.72477   0.81202   0.50073   1.000
    O510    O    0.52523   0.31205   0.50074   1.000
    O511    O    0.02524   0.31205   0.50075   1.000
    O512    O    0.24541   0.40484   0.51395   1.000
    O513    O    0.19588   0.52773   0.51662   1.000
    O514    O    0.26726   0.52506   0.57081   1.000
    O515    O    0.74541   0.40484   0.51395   1.000
    O516    O    0.69588   0.52773   0.51662   1.000
    O517    O    0.76726   0.52506   0.57081   1.000
    O518    O    0.50457   0.90484   0.51399   1.000
    O519    O    0.55411   0.02772   0.51667   1.000
    O520    O    0.48272   0.02506   0.57086   1.000
    O521    O    0.00457   0.90484   0.51401   1.000
    O522    O    0.05412   0.02772   0.51667   1.000
    O523    O    0.98272   0.02506   0.57084   1.000
    O524    O    0.50086   0.64414   0.54611   1.000
    O525    O    0.00086   0.64414   0.54612   1.000
    O526    O    0.24915   0.14416   0.54614   1.000
    O527    O    0.74915   0.14416   0.54614   1.000
    O528    O    0.70474   0.75227   0.54104   1.000
    O529    O    0.54528   0.25231   0.54103   1.000
    O530    O    0.20474   0.75227   0.54104   1.000
    O531    O    0.04528   0.25232   0.54104   1.000
    O532    O    0.72443   0.28074   0.55716   1.000
    O533    O    0.52554   0.78075   0.55716   1.000
    O534    O    0.22443   0.28073   0.55716   1.000
    O535    O    0.02554   0.78075   0.55718   1.000
    O536    O    0.62813   0.53328   0.56547   1.000
    O537    O    0.12813   0.53328   0.56548   1.000
    O538    O    0.12186   0.03327   0.56551   1.000
    O539    O    0.62186   0.03327   0.56551   1.000
    O540    O    0.53272   0.70072   0.58254   1.000
    O541    O    0.53460   0.60262   0.60195   1.000
    O542    O    0.03272   0.70072   0.58255   1.000
    O543    O    0.03460   0.60262   0.60196   1.000
    O544    O    0.71727   0.20071   0.58254   1.000
    O545    O    0.71541   0.10262   0.60197   1.000
    O546    O    0.21727   0.20071   0.58254   1.000
    O547    O    0.21541   0.10262   0.60194   1.000
    O548    O    0.19044   0.26710   0.60943   1.000
    O549    O    0.69044   0.26710   0.60943   1.000
    O550    O    0.55954   0.76714   0.60946   1.000
    O551    O    0.05953   0.76714   0.60947   1.000
    O552    O    0.08010   0.53338   0.61138   1.000
    O553    O    0.12389   0.47339   0.62065   1.000
    O554    O    0.58010   0.53338   0.61138   1.000
    O555    O    0.62389   0.47339   0.62065   1.000
    O556    O    0.16990   0.03337   0.61138   1.000
    O557    O    0.12609   0.97340   0.62069   1.000
    O558    O    0.66990   0.03337   0.61141   1.000
    O559    O    0.62609   0.97340   0.62069   1.000
    O560    O    0.72211   0.02459   0.61749   1.000
    O561    O    0.22210   0.02460   0.61747   1.000
    O562    O    0.52789   0.52459   0.61749   1.000
    O563    O    0.02789   0.52459   0.61749   1.000
    O564    O    0.35067   0.63470   0.63520   1.000
    O565    O    0.85067   0.63471   0.63520   1.000
    O566    O    0.39932   0.13475   0.63523   1.000
    O567    O    0.89933   0.13477   0.63523   1.000
    O568    O    0.20414   0.06431   0.67178   1.000
    O569    O    0.04588   0.56433   0.67180   1.000
    O570    O    0.54588   0.56433   0.67180   1.000
    O571    O    0.70414   0.06431   0.67181   1.000
    O572    O    0.93995   0.08347   0.65091   1.000
    O573    O    0.97733   0.03684   0.68058   1.000
    O574    O    0.31001   0.58343   0.65091   1.000
    O575    O    0.27261   0.53683   0.68057   1.000
    O576    O    0.81001   0.58344   0.65091   1.000
    O577    O    0.77261   0.53683   0.68057   1.000
    O578    O    0.43995   0.08346   0.65092   1.000
    O579    O    0.47733   0.03683   0.68060   1.000
    O580    O    0.84019   0.62469   0.70223   1.000
    O581    O    0.34019   0.62468   0.70223   1.000
    O582    O    0.40981   0.12473   0.70225   1.000
    O583    O    0.90981   0.12474   0.70226   1.000
    O584    O    0.57047   0.60284   0.73699   1.000
    O585    O    0.52841   0.54830   0.74946   1.000
    O586    O    0.07047   0.60284   0.73699   1.000
    O587    O    0.02842   0.54830   0.74946   1.000
    O588    O    0.17957   0.10278   0.73703   1.000
    O589    O    0.22163   0.04828   0.74947   1.000
    O590    O    0.67957   0.10279   0.73703   1.000
    O591    O    0.72163   0.04827   0.74947   1.000
    O592    O    0.73967   0.49831   0.72503   1.000
    O593    O    0.77838   0.54826   0.75045   1.000
    O594    O    0.23967   0.49831   0.72503   1.000
    O595    O    0.27838   0.54826   0.75045   1.000
    O596    O    0.51026   0.99830   0.72506   1.000
    O597    O    0.47158   0.04828   0.75047   1.000
    O598    O    0.01026   0.99830   0.72506   1.000
    O599    O    0.97158   0.04828   0.75048   1.000
    O600    O    0.32045   0.60277   0.76292   1.000
    O601    O    0.82045   0.60278   0.76292   1.000
    O602    O    0.42954   0.10282   0.76294   1.000
    O603    O    0.92954   0.10283   0.76294   1.000
    O604    O    0.59022   0.62474   0.79769   1.000
    O605    O    0.09022   0.62474   0.79769   1.000
    O606    O    0.65983   0.12465   0.79773   1.000
    O607    O    0.15983   0.12465   0.79773   1.000
    O608    O    0.76033   0.99832   0.77485   1.000
    O609    O    0.26033   0.99833   0.77485   1.000
    O610    O    0.48973   0.49831   0.77486   1.000
    O611    O    0.98973   0.49831   0.77486   1.000
    O612    O    0.72739   0.03681   0.81933   1.000
    O613    O    0.22738   0.03681   0.81923   1.000
    O614    O    0.02267   0.53685   0.81933   1.000
    O615    O    0.52267   0.53685   0.81929   1.000
    O616    O    0.29587   0.56428   0.82811   1.000
    O617    O    0.79587   0.56428   0.82811   1.000
    O618    O    0.95412   0.06432   0.82813   1.000
    O619    O    0.45411   0.06432   0.82813   1.000
    O620    O    0.56007   0.58347   0.84896   1.000
    O621    O    0.60071   0.63476   0.86471   1.000
    O622    O    0.06007   0.58347   0.84901   1.000
    O623    O    0.10072   0.63476   0.86472   1.000
    O624    O    0.18999   0.08338   0.84893   1.000
    O625    O    0.14934   0.13463   0.86476   1.000
    O626    O    0.68999   0.08339   0.84903   1.000
    O627    O    0.64934   0.13463   0.86476   1.000
    O628    O    0.87389   0.47337   0.87922   1.000
    O629    O    0.37389   0.47337   0.87922   1.000
    O630    O    0.37609   0.97339   0.87925   1.000
    O631    O    0.87609   0.97339   0.87925   1.000
    O632    O    0.23274   0.02503   0.92900   1.000
    O633    O    0.51729   0.52506   0.92905   1.000
    O634    O    0.01729   0.52507   0.92910   1.000
    O635    O    0.73275   0.02503   0.92909   1.000
    O636    O    0.94047   0.26714   0.89045   1.000
    O637    O    0.44047   0.26714   0.89048   1.000
    O638    O    0.30955   0.76709   0.89049   1.000
    O639    O    0.80956   0.76709   0.89049   1.000
    O640    O    0.27789   0.52455   0.88238   1.000
    O641    O    0.33010   0.53334   0.88851   1.000
    O642    O    0.28460   0.60258   0.89796   1.000
    O643    O    0.77789   0.52455   0.88241   1.000
    O644    O    0.83010   0.53334   0.88851   1.000
    O645    O    0.78460   0.60259   0.89796   1.000
    O646    O    0.97209   0.02461   0.88244   1.000
    O647    O    0.91989   0.03337   0.88855   1.000
    O648    O    0.96539   0.10264   0.89799   1.000
    O649    O    0.47209   0.02461   0.88243   1.000
    O650    O    0.41989   0.03337   0.88855   1.000
    O651    O    0.46540   0.10264   0.89798   1.000
    O652    O    0.37813   0.53325   0.93442   1.000
    O653    O    0.87813   0.53325   0.93442   1.000
    O654    O    0.37186   0.03327   0.93445   1.000
    O655    O    0.87186   0.03327   0.93445   1.000
    O656    O    0.96728   0.20074   0.91740   1.000
    O657    O    0.97446   0.28078   0.94276   1.000
    O658    O    0.46728   0.20074   0.91740   1.000
    O659    O    0.47446   0.28078   0.94276   1.000
    O660    O    0.28273   0.70068   0.91740   1.000
    O661    O    0.27556   0.78071   0.94276   1.000
    O662    O    0.78274   0.70068   0.91740   1.000
    O663    O    0.77556   0.78072   0.94277   1.000
    O664    O    0.75086   0.64413   0.95381   1.000
    O665    O    0.25086   0.64412   0.95380   1.000
    O666    O    0.49914   0.14420   0.95379   1.000
    O667    O    0.99914   0.14420   0.95383   1.000
    O668    O    0.45472   0.75218   0.95886   1.000
    O669    O    0.95472   0.75218   0.95890   1.000
    O670    O    0.29526   0.25230   0.95891   1.000
    O671    O    0.79527   0.25230   0.95891   1.000
    O672    O    0.94588   0.52772   0.98329   1.000
    O673    O    0.44588   0.52772   0.98328   1.000
    O674    O    0.80412   0.02773   0.98330   1.000
    O675    O    0.30412   0.02772   0.98330   1.000
    O676    O    0.25458   0.90483   0.98595   1.000
    O677    O    0.49543   0.40487   0.98595   1.000
    O678    O    0.75458   0.90483   0.98596   1.000
    O679    O    0.99543   0.40487   0.98596   1.000
loop_
    _geom_bond_atom_site_label_1
    _geom_bond_atom_site_label_2
    _geom_bond_distance
    _geom_bond_site_symmetry_2
    _ccdc_geom_bond_type
    C223   O312      0.68697  1_655   S
    C220   O312      0.68697      .   S
    C223   O313      0.66418  1_554   S
    C125   O313      0.66418      .   S
    C222   O314      0.68686      .   S
    C221   O314      0.68686      .   S
    C222   O315      0.66418  1_554   S
    C124   O315      0.66418      .   S
    C234   O316      0.68685      .   S
    C232   O316      0.68685      .   S
    C234   O317      0.66417  1_554   S
    C136   O317      0.66417      .   S
    C235   O318      0.68687      .   S
    C233   O318      0.68687      .   S
    C235   O319      0.66417  1_554   S
    C137   O319      0.66417      .   S
    C88    O320      0.54150      .   S
    C8     O320      0.54150      .   S
    C88    O321      0.68462  1_554   S
    C188   O321      0.68462      .   S
    C88    O322      0.66419      .   S
    C186   O322      0.66419  1_556   S
    C89    O323      0.54151      .   S
    C9     O323      0.54151      .   S
    C89    O324      0.68455  1_554   S
    C189   O324      0.68455      .   S
    C89    O325      0.66416      .   S
    C187   O325      0.66416  1_556   S
    C173   O326      0.54150      .   S
    C79    O326      0.54150      .   S
    C173   O327      0.68460  1_554   S
    C272   O327      0.68460      .   S
    C173   O328      0.66433      .   S
    C271   O328      0.66433  1_556   S
    C172   O329      0.54151      .   S
    C78    O329      0.54151      .   S
    C172   O330      0.68464  1_554   S
    C273   O330      0.68464  1_655   S
    C172   O331      0.66418      .   S
    C270   O331      0.66418  1_556   S
    C236   O332      0.66883      .   S
    C138   O332      0.66883      .   S
    C236   O333      0.68454      .   S
    C136   O333      0.68454  1_556   S
    C236   O334      1.22513      .   S
    C6     O334      1.22513  1_556   S
    C237   O335      0.66884      .   S
    C139   O335      0.66884      .   S
    C237   O336      0.68455      .   S
    C137   O336      0.68455  1_556   S
    C237   O337      1.22513      .   S
    C7     O337      1.22513  1_556   S
    C225   O338      0.66883      .   S
    C127   O338      0.66883      .   S
    C225   O339      0.68460      .   S
    C124   O339      0.68460  1_556   S
    C225   O340      1.22457      .   S
    C1     O340      1.22457  1_556   S
    C224   O341      0.66887      .   S
    C126   O341      0.66887      .   S
    C224   O342      0.68464  1_455   S
    C125   O342      0.68464  1_556   S
    C224   O343      1.22455      .   S
    C0     O343      1.22455  1_655   S
    C293   O344      0.63307      .   S
    C131   O344      0.63307      .   S
    C293   O345      1.18990      .   S
    C7     O345      1.18990  1_546   S
    C292   O346      0.63284      .   S
    C130   O346      0.63284      .   S
    C292   O347      1.18987      .   S
    C6     O347      1.18987  1_546   S
    C297   O348      0.63308      .   S
    C143   O348      0.63308      .   S
    C297   O349      1.18999      .   S
    C1     O349      1.18999  1_556   S
    C296   O350      0.63309      .   S
    C142   O350      0.63309      .   S
    C296   O351      1.19005      .   S
    C0     O351      1.19005  1_655   S
    C221   O352      0.67513      .   S
    C127   O352      0.67513      .   S
    C221   O353      0.72886      .   S
    C129   O353      0.72886      .   S
    C233   O354      0.67515      .   S
    C139   O354      0.67515      .   S
    C233   O355      0.72888      .   S
    C141   O355      0.72888      .   S
    C232   O356      0.67514      .   S
    C138   O356      0.67514      .   S
    C232   O357      0.72889      .   S
    C140   O357      0.72889      .   S
    C220   O358      0.67513      .   S
    C126   O358      0.67513      .   S
    C220   O359      0.72886      .   S
    C128   O359      0.72886      .   S
    C139   O360      0.54194      .   S
    C51    O360      0.54194      .   S
    C138   O361      0.54193      .   S
    C50    O361      0.54193      .   S
    C127   O362      0.54190      .   S
    C41    O362      0.54190      .   S
    C126   O363      0.54190      .   S
    C40    O363      0.54190      .   S
    C130   O364      0.78749      .   S
    C128   O364      0.78749      .   S
    C130   O365      0.62437  1_565   S
    C294   O365      0.62437      .   S
    C131   O366      0.78738      .   S
    C129   O366      0.78738      .   S
    C131   O367      0.62417  1_565   S
    C295   O367      0.62417      .   S
    C143   O368      0.78742      .   S
    C141   O368      0.78742      .   S
    C143   O369      0.62421      .   S
    C299   O369      0.62421      .   S
    C142   O370      0.78741      .   S
    C140   O370      0.78741      .   S
    C142   O371      0.62421      .   S
    C298   O371      0.62421      .   S
    C42    O372      0.54825  1_545   S
    C128   O372      0.54825      .   S
    C43    O373      0.54813  1_545   S
    C129   O373      0.54813      .   S
    C52    O374      0.54820      .   S
    C140   O374      0.54820      .   S
    C53    O375      0.54820      .   S
    C141   O375      0.54820      .   S
    C76    O376      0.54239      .   S
    C170   O376      0.54239      .   S
    C77    O377      0.54239      .   S
    C171   O377      0.54239      .   S
    C27    O378      0.54267      .   S
    C111   O378      0.54267      .   S
    C26    O379      0.54239      .   S
    C110   O379      0.54239      .   S
    C129   O380      0.72602      .   S
    C227   O380      0.72602      .   S
    C128   O381      0.72602      .   S
    C226   O381      0.72602      .   S
    C140   O382      0.72603      .   S
    C238   O382      0.72603      .   S
    C141   O383      0.72602      .   S
    C239   O383      0.72602      .   S
    C267   O384      0.68547      .   S
    C171   O384      0.68547      .   S
    C267   O385      0.66733      .   S
    C169   O385      0.66733      .   S
    C267   O386      1.18880      .   S
    C7     O386      1.18880  1_546   S
    C266   O387      0.68540      .   S
    C170   O387      0.68540      .   S
    C266   O388      0.66699      .   S
    C168   O388      0.66699      .   S
    C266   O389      1.18915      .   S
    C6     O389      1.18915  1_546   S
    C206   O390      0.68540      .   S
    C110   O390      0.68540      .   S
    C206   O391      0.66699      .   S
    C108   O391      0.66699      .   S
    C206   O392      1.18952      .   S
    C1     O392      1.18952  1_556   S
    C207   O393      0.68538      .   S
    C111   O393      0.68538      .   S
    C207   O394      0.66699      .   S
    C109   O394      0.66699      .   S
    C207   O395      1.18950      .   S
    C0     O395      1.18950      .   S
    C170   O396      0.66292      .   S
    C264   O396      0.66292      .   S
    C171   O397      0.66292      .   S
    C265   O397      0.66292      .   S
    C111   O398      0.66295      .   S
    C205   O398      0.66295      .   S
    C110   O399      0.66287      .   S
    C204   O399      0.66287      .   S
    C227   O400      0.68771      .   S
    C229   O400      0.68771      .   S
    C227   O401      0.67506      .   S
    C133   O401      0.67506      .   S
    C226   O402      0.68767      .   S
    C228   O402      0.68767      .   S
    C226   O403      0.67502      .   S
    C132   O403      0.67502      .   S
    C239   O404      0.68768      .   S
    C241   O404      0.68768      .   S
    C239   O405      0.67503      .   S
    C145   O405      0.67503      .   S
    C238   O406      0.68768      .   S
    C240   O406      0.68768      .   S
    C238   O407      0.67503      .   S
    C144   O407      0.67503      .   S
    C169   O408      0.54287  1_565   S
    C75    O408      0.54287      .   S
    C169   O409      0.67507      .   S
    C263   O409      0.67507      .   S
    C168   O410      0.54287  1_565   S
    C74    O410      0.54287      .   S
    C168   O411      0.67507      .   S
    C262   O411      0.67507      .   S
    C108   O412      0.54292      .   S
    C25    O412      0.54292      .   S
    C108   O413      0.67506      .   S
    C202   O413      0.67506      .   S
    C109   O414      0.54299  1_655   S
    C24    O414      0.54299      .   S
    C109   O415      0.67506      .   S
    C203   O415      0.67506      .   S
    C265   O416      0.68769      .   S
    C263   O416      0.68769      .   S
    C264   O417      0.68770      .   S
    C262   O417      0.68770      .   S
    C204   O418      0.68772      .   S
    C202   O418      0.68772      .   S
    C205   O419      0.68771      .   S
    C203   O419      0.68771      .   S
    C229   O420      0.66292      .   S
    C135   O420      0.66292      .   S
    C228   O421      0.66292      .   S
    C134   O421      0.66292      .   S
    C241   O422      0.66292      .   S
    C147   O422      0.66292      .   S
    C240   O423      0.66292      .   S
    C146   O423      0.66292      .   S
    C44    O424      0.54288      .   S
    C133   O424      0.54288  1_565   S
    C45    O425      0.54294      .   S
    C132   O425      0.54294  1_465   S
    C55    O426      0.54293      .   S
    C145   O426      0.54293      .   S
    C54    O427      0.54293      .   S
    C144   O427      0.54293      .   S
    C132   O428      0.66688      .   S
    C230   O428      0.66688      .   S
    C133   O429      0.66695      .   S
    C231   O429      0.66695      .   S
    C144   O430      0.66696      .   S
    C242   O430      0.66696      .   S
    C145   O431      0.66696      .   S
    C243   O431      0.66696      .   S
    C263   O432      0.72605      .   S
    C165   O432      0.72605      .   S
    C262   O433      0.72537      .   S
    C164   O433      0.72537      .   S
    C202   O434      0.72600      .   S
    C104   O434      0.72600      .   S
    C203   O435      0.72600      .   S
    C105   O435      0.72600      .   S
    C134   O436      0.68537      .   S
    C230   O436      0.68537      .   S
    C134   O437      0.54231      .   S
    C46    O437      0.54231      .   S
    C135   O438      0.68538      .   S
    C231   O438      0.68538      .   S
    C135   O439      0.54237      .   S
    C47    O439      0.54237      .   S
    C147   O440      0.68538      .   S
    C243   O440      0.68538      .   S
    C147   O441      0.54238      .   S
    C57    O441      0.54238      .   S
    C146   O442      0.68539      .   S
    C242   O442      0.68539      .   S
    C146   O443      0.54238      .   S
    C56    O443      0.54238      .   S
    C307   O444      0.62416      .   S
    C167   O444      0.62416  1_565   S
    C306   O445      0.62415      .   S
    C166   O445      0.62415  1_565   S
    C286   O446      0.62422      .   S
    C106   O446      0.62422      .   S
    C287   O447      0.62417      .   S
    C107   O447      0.62417      .   S
    C230   O448      1.18945      .   S
    C4     O448      1.18945  1_545   S
    C231   O449      1.18931      .   S
    C5     O449      1.18931  1_545   S
    C242   O450      1.18845      .   S
    C2     O450      1.18845      .   S
    C243   O451      1.18843      .   S
    C3     O451      1.18843      .   S
    C21    O452      0.54194      .   S
    C103   O452      0.54194      .   S
    C20    O453      0.54180      .   S
    C102   O453      0.54180      .   S
    C70    O454      0.54191      .   S
    C162   O454      0.54191      .   S
    C71    O455      0.54192      .   S
    C163   O455      0.54192      .   S
    C164   O456      0.54827      .   S
    C72    O456      0.54827  1_545   S
    C164   O457      0.78759      .   S
    C166   O457      0.78759      .   S
    C164   O458      0.72918      .   S
    C256   O458      0.72918      .   S
    C165   O459      0.54808      .   S
    C73    O459      0.54808  1_545   S
    C165   O460      0.78739      .   S
    C167   O460      0.78739      .   S
    C165   O461      0.72884      .   S
    C257   O461      0.72884      .   S
    C104   O462      0.54819      .   S
    C22    O462      0.54819      .   S
    C104   O463      0.78741      .   S
    C106   O463      0.78741      .   S
    C104   O464      0.72887      .   S
    C196   O464      0.72887      .   S
    C105   O465      0.54819      .   S
    C23    O465      0.54819      .   S
    C105   O466      0.78740      .   S
    C107   O466      0.78740      .   S
    C105   O467      0.72886      .   S
    C197   O467      0.72886      .   S
    C166   O468      0.63309      .   S
    C304   O468      0.63309      .   S
    C167   O469      0.63260      .   S
    C305   O469      0.63260      .   S
    C107   O470      0.63315      .   S
    C285   O470      0.63315      .   S
    C106   O471      0.63312      .   S
    C284   O471      0.63312      .   S
    C102   O472      0.67516      .   S
    C196   O472      0.67516      .   S
    C102   O473      0.66896      .   S
    C200   O473      0.66896      .   S
    C103   O474      0.67515      .   S
    C197   O474      0.67515      .   S
    C103   O475      0.66884      .   S
    C201   O475      0.66884      .   S
    C162   O476      0.67514      .   S
    C256   O476      0.67514      .   S
    C162   O477      0.66884      .   S
    C260   O477      0.66884      .   S
    C163   O478      0.67514      .   S
    C257   O478      0.67514      .   S
    C163   O479      0.66884      .   S
    C261   O479      0.66884      .   S
    C257   O480      0.68685      .   S
    C259   O480      0.68685      .   S
    C256   O481      0.68684      .   S
    C258   O481      0.68684      .   S
    C196   O482      0.68686      .   S
    C199   O482      0.68686      .   S
    C197   O483      0.68690      .   S
    C198   O483      0.68690  1_455   S
    C28    O484      0.54154      .   S
    C112   O484      0.54154      .   S
    C58    O485      0.54155      .   S
    C148   O485      0.54155      .   S
    C29    O486      0.54149      .   S
    C113   O486      0.54149      .   S
    C59    O487      0.54148      .   S
    C149   O487      0.54148      .   S
    C305   O488      1.19006      .   S
    C4     O488      1.19006  1_445   S
    C304   O489      1.18985      .   S
    C5     O489      1.18985  1_545   S
    C284   O490      1.18984      .   S
    C2     O490      1.18984      .   S
    C285   O491      1.18982      .   S
    C3     O491      1.18982      .   S
    C200   O492      1.22509      .   S
    C5     O492      1.22509      .   S
    C200   O493      0.68450      .   S
    C101   O493      0.68450      .   S
    C201   O494      1.22508      .   S
    C4     O494      1.22508  1_455   S
    C201   O495      0.68454  1_655   S
    C100   O495      0.68454      .   S
    C261   O496      1.22493      .   S
    C3     O496      1.22493      .   S
    C261   O497      0.68447      .   S
    C161   O497      0.68447      .   S
    C260   O498      1.22492      .   S
    C2     O498      1.22492      .   S
    C260   O499      0.68447      .   S
    C160   O499      0.68447      .   S
    C112   O500      0.66405      .   S
    C210   O500      0.66405      .   S
    C112   O501      0.68447      .   S
    C212   O501      0.68447      .   S
    C149   O502      0.66408      .   S
    C247   O502      0.66408      .   S
    C149   O503      0.68454      .   S
    C248   O503      0.68454  1_455   S
    C148   O504      0.66404      .   S
    C246   O504      0.66404      .   S
    C148   O505      0.68438      .   S
    C249   O505      0.68438      .   S
    C113   O506      0.66406      .   S
    C211   O506      0.66406      .   S
    C113   O507      0.68448      .   S
    C213   O507      0.68448      .   S
    C258   O508      0.66405      .   S
    C160   O508      0.66405      .   S
    C259   O509      0.66405      .   S
    C161   O509      0.66405      .   S
    C199   O510      0.66406      .   S
    C101   O510      0.66406      .   S
    C198   O511      0.66407      .   S
    C100   O511      0.66407      .   S
    C2     O512      1.22512      .   S
    C212   O512      1.22512      .   S
    C2     O513      1.19010      .   S
    C300   O513      1.19010      .   S
    C2     O514      1.18951      .   S
    C194   O514      1.18951      .   S
    C3     O515      1.22513      .   S
    C213   O515      1.22513      .   S
    C3     O516      1.19010      .   S
    C301   O516      1.19010      .   S
    C3     O517      1.18952      .   S
    C195   O517      1.18952      .   S
    C5     O518      1.22498  1_545   S
    C249   O518      1.22498      .   S
    C5     O519      1.18982      .   S
    C289   O519      1.18982      .   S
    C5     O520      1.18940      .   S
    C278   O520      1.18940      .   S
    C4     O521      1.22500  1_545   S
    C248   O521      1.22500      .   S
    C4     O522      1.18979      .   S
    C288   O522      1.18979      .   S
    C4     O523      1.18905  1_455   S
    C279   O523      1.18905      .   S
    C246   O524      0.68686      .   S
    C245   O524      0.68686      .   S
    C247   O525      0.68690  1_655   S
    C244   O525      0.68690      .   S
    C210   O526      0.68685      .   S
    C208   O526      0.68685      .   S
    C211   O527      0.68687      .   S
    C209   O527      0.68687      .   S
    C161   O528      0.54154      .   S
    C69    O528      0.54154      .   S
    C101   O529      0.54150      .   S
    C19    O529      0.54150      .   S
    C160   O530      0.54154      .   S
    C68    O530      0.54154      .   S
    C100   O531      0.54146      .   S
    C18    O531      0.54146      .   S
    C213   O532      0.66886      .   S
    C115   O532      0.66886      .   S
    C249   O533      0.66896      .   S
    C151   O533      0.66896      .   S
    C212   O534      0.66885      .   S
    C114   O534      0.66885      .   S
    C248   O535      0.66885      .   S
    C150   O535      0.66885      .   S
    C301   O536      0.63310      .   S
    C155   O536      0.63310      .   S
    C300   O537      0.63306      .   S
    C154   O537      0.63306      .   S
    C288   O538      0.63313      .   S
    C118   O538      0.63313      .   S
    C289   O539      0.63313      .   S
    C119   O539      0.63313      .   S
    C245   O540      0.67514      .   S
    C151   O540      0.67514      .   S
    C245   O541      0.72889      .   S
    C153   O541      0.72889      .   S
    C244   O542      0.67514      .   S
    C150   O542      0.67514      .   S
    C244   O543      0.72887      .   S
    C152   O543      0.72887      .   S
    C209   O544      0.67514      .   S
    C115   O544      0.67514      .   S
    C209   O545      0.72884      .   S
    C117   O545      0.72884      .   S
    C208   O546      0.67514      .   S
    C114   O546      0.67514      .   S
    C208   O547      0.72861      .   S
    C116   O547      0.72861      .   S
    C114   O548      0.54190      .   S
    C30    O548      0.54190      .   S
    C115   O549      0.54191      .   S
    C31    O549      0.54191      .   S
    C151   O550      0.54195      .   S
    C61    O550      0.54195      .   S
    C150   O551      0.54195      .   S
    C60    O551      0.54195      .   S
    C154   O552      0.78741      .   S
    C152   O552      0.78741      .   S
    C154   O553      0.62420      .   S
    C302   O553      0.62420      .   S
    C155   O554      0.78741      .   S
    C153   O554      0.78741      .   S
    C155   O555      0.62421      .   S
    C303   O555      0.62421      .   S
    C118   O556      0.78727      .   S
    C116   O556      0.78727      .   S
    C118   O557      0.62414  1_545   S
    C290   O557      0.62414      .   S
    C119   O558      0.78741      .   S
    C117   O558      0.78741      .   S
    C119   O559      0.62415  1_545   S
    C291   O559      0.62415      .   S
    C33    O560      0.54813  1_565   S
    C117   O560      0.54813      .   S
    C32    O561      0.54802  1_565   S
    C116   O561      0.54802      .   S
    C63    O562      0.54819      .   S
    C153   O562      0.54819      .   S
    C62    O563      0.54819      .   S
    C152   O563      0.54819      .   S
    C16    O564      0.54238      .   S
    C98    O564      0.54238      .   S
    C17    O565      0.54238      .   S
    C99    O565      0.54238      .   S
    C86    O566      0.54236      .   S
    C182   O566      0.54236      .   S
    C87    O567      0.54237      .   S
    C183   O567      0.54237      .   S
    C116   O568      0.72651      .   S
    C214   O568      0.72651      .   S
    C152   O569      0.72600      .   S
    C250   O569      0.72600      .   S
    C153   O570      0.72600      .   S
    C251   O570      0.72600      .   S
    C117   O571      0.72606      .   S
    C215   O571      0.72606      .   S
    C279   O572      0.68546      .   S
    C183   O572      0.68546      .   S
    C279   O573      0.66730      .   S
    C181   O573      0.66730      .   S
    C194   O574      0.68539      .   S
    C98    O574      0.68539      .   S
    C194   O575      0.66695      .   S
    C96    O575      0.66695      .   S
    C195   O576      0.68538      .   S
    C99    O576      0.68538      .   S
    C195   O577      0.66696      .   S
    C97    O577      0.66696      .   S
    C278   O578      0.68538      .   S
    C182   O578      0.68538      .   S
    C278   O579      0.66695      .   S
    C180   O579      0.66695      .   S
    C99    O580      0.66292      .   S
    C193   O580      0.66292      .   S
    C98    O581      0.66292      .   S
    C192   O581      0.66292      .   S
    C182   O582      0.66292      .   S
    C276   O582      0.66292      .   S
    C183   O583      0.66292      .   S
    C277   O583      0.66292      .   S
    C251   O584      0.68771      .   S
    C253   O584      0.68771      .   S
    C251   O585      0.67505      .   S
    C157   O585      0.67505      .   S
    C250   O586      0.68771      .   S
    C252   O586      0.68771      .   S
    C250   O587      0.67505      .   S
    C156   O587      0.67505      .   S
    C214   O588      0.68770      .   S
    C216   O588      0.68770      .   S
    C214   O589      0.67507      .   S
    C120   O589      0.67507      .   S
    C215   O590      0.68769      .   S
    C217   O590      0.68769      .   S
    C215   O591      0.67507      .   S
    C121   O591      0.67507      .   S
    C97    O592      0.54293      .   S
    C15    O592      0.54293      .   S
    C97    O593      0.67509      .   S
    C191   O593      0.67509      .   S
    C96    O594      0.54293      .   S
    C14    O594      0.54293      .   S
    C96    O595      0.67503      .   S
    C190   O595      0.67503      .   S
    C180   O596      0.54288  1_545   S
    C85    O596      0.54288      .   S
    C180   O597      0.67507      .   S
    C274   O597      0.67507      .   S
    C181   O598      0.54295  1_645   S
    C84    O598      0.54295      .   S
    C181   O599      0.67501      .   S
    C275   O599      0.67501      .   S
    C192   O600      0.68768      .   S
    C190   O600      0.68768      .   S
    C193   O601      0.68771      .   S
    C191   O601      0.68771      .   S
    C276   O602      0.68771      .   S
    C274   O602      0.68771      .   S
    C277   O603      0.68768      .   S
    C275   O603      0.68768      .   S
    C253   O604      0.66287      .   S
    C159   O604      0.66287      .   S
    C252   O605      0.66295      .   S
    C158   O605      0.66295      .   S
    C217   O606      0.66292      .   S
    C123   O606      0.66292      .   S
    C216   O607      0.66292      .   S
    C122   O607      0.66292      .   S
    C35    O608      0.54288      .   S
    C121   O608      0.54288  1_545   S
    C34    O609      0.54287      .   S
    C120   O609      0.54287  1_545   S
    C64    O610      0.54292      .   S
    C157   O610      0.54292      .   S
    C65    O611      0.54299      .   S
    C156   O611      0.54299  1_455   S
    C121   O612      0.66692      .   S
    C219   O612      0.66692      .   S
    C120   O613      0.66561      .   S
    C218   O613      0.66561      .   S
    C156   O614      0.66699      .   S
    C254   O614      0.66699      .   S
    C157   O615      0.66637      .   S
    C255   O615      0.66637      .   S
    C190   O616      0.72603      .   S
    C92    O616      0.72603      .   S
    C191   O617      0.72595      .   S
    C93    O617      0.72595      .   S
    C275   O618      0.72602      .   S
    C177   O618      0.72602      .   S
    C274   O619      0.72602      .   S
    C176   O619      0.72602      .   S
    C159   O620      0.68527      .   S
    C255   O620      0.68527      .   S
    C159   O621      0.54239      .   S
    C67    O621      0.54239      .   S
    C158   O622      0.68540      .   S
    C254   O622      0.68540      .   S
    C158   O623      0.54234      .   S
    C66    O623      0.54234      .   S
    C122   O624      0.68508      .   S
    C218   O624      0.68508      .   S
    C122   O625      0.54239      .   S
    C36    O625      0.54239      .   S
    C123   O626      0.68537      .   S
    C219   O626      0.68537      .   S
    C123   O627      0.54239      .   S
    C37    O627      0.54239      .   S
    C283   O628      0.62419      .   S
    C95    O628      0.62419      .   S
    C282   O629      0.62419      .   S
    C94    O629      0.62419      .   S
    C310   O630      0.62420      .   S
    C178   O630      0.62420  1_545   S
    C311   O631      0.62418      .   S
    C179   O631      0.62418  1_545   S
    C218   O632      1.19080      .   S
    C6     O632      1.19080      .   S
    C255   O633      1.19035      .   S
    C1     O633      1.19035      .   S
    C254   O634      1.18980      .   S
    C0     O634      1.18980  1_654   S
    C219   O635      1.18944      .   S
    C7     O635      1.18944      .   S
    C81    O636      0.54213      .   S
    C175   O636      0.54213      .   S
    C80    O637      0.54190      .   S
    C174   O637      0.54190      .   S
    C10    O638      0.54194      .   S
    C90    O638      0.54194      .   S
    C11    O639      0.54194      .   S
    C91    O639      0.54194      .   S
    C92    O640      0.54809      .   S
    C12    O640      0.54809      .   S
    C92    O641      0.78740      .   S
    C94    O641      0.78740      .   S
    C92    O642      0.72889      .   S
    C184   O642      0.72889      .   S
    C93    O643      0.54821      .   S
    C13    O643      0.54821      .   S
    C93    O644      0.78739      .   S
    C95    O644      0.78739      .   S
    C93    O645      0.72889      .   S
    C185   O645      0.72889      .   S
    C177   O646      0.54814      .   S
    C83    O646      0.54814  1_565   S
    C177   O647      0.78741      .   S
    C179   O647      0.78741      .   S
    C177   O648      0.72889      .   S
    C269   O648      0.72889      .   S
    C176   O649      0.54813      .   S
    C82    O649      0.54813  1_565   S
    C176   O650      0.78740      .   S
    C178   O650      0.78740      .   S
    C176   O651      0.72887      .   S
    C268   O651      0.72887      .   S
    C94    O652      0.63313      .   S
    C280   O652      0.63313      .   S
    C95    O653      0.63312      .   S
    C281   O653      0.63312      .   S
    C178   O654      0.63311      .   S
    C308   O654      0.63311      .   S
    C179   O655      0.63313      .   S
    C309   O655      0.63313      .   S
    C175   O656      0.67514      .   S
    C269   O656      0.67514      .   S
    C175   O657      0.66888      .   S
    C273   O657      0.66888      .   S
    C174   O658      0.67513      .   S
    C268   O658      0.67513      .   S
    C174   O659      0.66885      .   S
    C272   O659      0.66885      .   S
    C90    O660      0.67514      .   S
    C184   O660      0.67514      .   S
    C90    O661      0.66874      .   S
    C188   O661      0.66874      .   S
    C91    O662      0.67514      .   S
    C185   O662      0.67514      .   S
    C91    O663      0.66884      .   S
    C189   O663      0.66884      .   S
    C185   O664      0.68686      .   S
    C187   O664      0.68686      .   S
    C184   O665      0.68682      .   S
    C186   O665      0.68682      .   S
    C268   O666      0.68655      .   S
    C271   O666      0.68655      .   S
    C269   O667      0.68693      .   S
    C270   O667      0.68693  1_455   S
    C38    O668      0.54194      .   S
    C124   O668      0.54194      .   S
    C39    O669      0.54151      .   S
    C125   O669      0.54151      .   S
    C48    O670      0.54150      .   S
    C136   O670      0.54150      .   S
    C49    O671      0.54150      .   S
    C137   O671      0.54150      .   S
    C281   O672      1.19005      .   S
    C0     O672      1.19005  1_554   S
    C280   O673      1.19007      .   S
    C1     O673      1.19007      .   S
    C309   O674      1.18982      .   S
    C7     O674      1.18982      .   S
    C308   O675      1.18984      .   S
    C6     O675      1.18984      .   S
    C188   O676      1.22516      .   S
    C6     O676      1.22516  1_545   S
    C272   O677      1.22465      .   S
    C1     O677      1.22465      .   S
    C189   O678      1.22514      .   S
    C7     O678      1.22514  1_545   S
    C273   O679      1.22465      .   S
    C0     O679      1.22465  1_554   S
