# CIF file generated by openbabel 2.4.90, see http://openbabel.sf.net
data_I
_chemical_name_common ''
_cell_length_a 20.472
_cell_length_b 12.631
_cell_length_c 15.386
_cell_angle_alpha 90.011
_cell_angle_beta 90.002
_cell_angle_gamma 90.012
_space_group_name_H-M_alt 'P 1'
_space_group_name_Hall 'P 1'
loop_
    _symmetry_equiv_pos_as_xyz
    x,y,z
loop_
    _atom_site_label
    _atom_site_type_symbol
    _atom_site_fract_x
    _atom_site_fract_y
    _atom_site_fract_z
    _atom_site_occupancy
    Zr0     Zr   1.00000   0.50002   0.00000   1.000
    Zr1     Zr   0.50000   0.50002   0.99999   1.000
    Zr2     Zr   0.25000   0.50002   0.49990   1.000
    Zr3     Zr   0.75000   0.50002   0.49990   1.000
    Zr4     Zr   0.00000   0.00001   0.49998   1.000
    Zr5     Zr   0.50000   0.00001   0.49997   1.000
    Zr6     Zr   0.25000   0.00001   0.99999   1.000
    Zr7     Zr   0.75000   0.00002   0.99999   1.000
    Zr8     Zr   0.36450   0.51108   0.90227   1.000
    Zr9     Zr   0.86450   0.51108   0.90227   1.000
    Zr10    Zr   0.38549   0.48891   0.40234   1.000
    Zr11    Zr   0.88549   0.48891   0.40234   1.000
    Zr12    Zr   0.13549   0.01110   0.59765   1.000
    Zr13    Zr   0.63549   0.01110   0.59765   1.000
    Zr14    Zr   0.11451   0.98893   0.09760   1.000
    Zr15    Zr   0.61451   0.98892   0.09764   1.000
    Zr16    Zr   0.13549   0.48894   0.09768   1.000
    Zr17    Zr   0.63549   0.48894   0.09768   1.000
    Zr18    Zr   0.11450   0.51111   0.59761   1.000
    Zr19    Zr   0.61450   0.51111   0.59761   1.000
    Zr20    Zr   0.36451   0.98892   0.40231   1.000
    Zr21    Zr   0.86451   0.98893   0.40231   1.000
    Zr22    Zr   0.38549   0.01110   0.90231   1.000
    Zr23    Zr   0.88549   0.01110   0.90231   1.000
    Zr24    Zr   0.39176   0.55542   0.96657   1.000
    Zr25    Zr   0.89176   0.55542   0.96657   1.000
    Zr26    Zr   0.38328   0.43565   0.85617   1.000
    Zr27    Zr   0.88328   0.43565   0.85617   1.000
    Zr28    Zr   0.35823   0.44457   0.46662   1.000
    Zr29    Zr   0.85823   0.44457   0.46662   1.000
    Zr30    Zr   0.36672   0.56434   0.35626   1.000
    Zr31    Zr   0.86672   0.56434   0.35627   1.000
    Zr32    Zr   0.10823   0.05543   0.53337   1.000
    Zr33    Zr   0.60823   0.05544   0.53337   1.000
    Zr34    Zr   0.11670   0.93569   0.64374   1.000
    Zr35    Zr   0.61670   0.93569   0.64374   1.000
    Zr36    Zr   0.14176   0.94458   0.03336   1.000
    Zr37    Zr   0.64176   0.94458   0.03336   1.000
    Zr38    Zr   0.13330   0.06435   0.14375   1.000
    Zr39    Zr   0.63330   0.06435   0.14374   1.000
    Zr40    Zr   0.10824   0.44459   0.03339   1.000
    Zr41    Zr   0.60823   0.44460   0.03339   1.000
    Zr42    Zr   0.11671   0.56437   0.14378   1.000
    Zr43    Zr   0.61671   0.56437   0.14378   1.000
    Zr44    Zr   0.14176   0.55544   0.53334   1.000
    Zr45    Zr   0.64176   0.55544   0.53333   1.000
    Zr46    Zr   0.13328   0.43568   0.64369   1.000
    Zr47    Zr   0.63327   0.43568   0.64369   1.000
    Zr48    Zr   0.39176   0.94458   0.46658   1.000
    Zr49    Zr   0.89176   0.94458   0.46650   1.000
    Zr50    Zr   0.38330   0.06433   0.35622   1.000
    Zr51    Zr   0.88330   0.06434   0.35622   1.000
    Zr52    Zr   0.35823   0.05544   0.96660   1.000
    Zr53    Zr   0.85823   0.05544   0.96660   1.000
    Zr54    Zr   0.36670   0.93567   0.85620   1.000
    Zr55    Zr   0.86670   0.93568   0.85620   1.000
    O56     O    0.62814   0.96675   0.06550   1.000
    O57     O    0.69588   0.97230   0.01668   1.000
    O58     O    0.12814   0.96675   0.06548   1.000
    O59     O    0.19588   0.97230   0.01668   1.000
    O60     O    0.62186   0.46677   0.06554   1.000
    O61     O    0.55412   0.47231   0.01669   1.000
    O62     O    0.12186   0.46677   0.06554   1.000
    O63     O    0.05412   0.47231   0.01669   1.000
    O64     O    0.12391   0.02664   0.12068   1.000
    O65     O    0.62390   0.02664   0.12069   1.000
    O66     O    0.62610   0.52666   0.12073   1.000
    O67     O    0.12610   0.52666   0.12073   1.000
    O68     O    0.87390   0.02663   0.37927   1.000
    O69     O    0.37390   0.02663   0.37927   1.000
    O70     O    0.37611   0.52663   0.37930   1.000
    O71     O    0.87611   0.52663   0.37931   1.000
    O72     O    0.37814   0.96675   0.43445   1.000
    O73     O    0.87813   0.96675   0.43441   1.000
    O74     O    0.87186   0.46674   0.43448   1.000
    O75     O    0.37186   0.46674   0.43448   1.000
    O76     O    0.94588   0.97230   0.48324   1.000
    O77     O    0.44588   0.97230   0.48328   1.000
    O78     O    0.30412   0.47229   0.48326   1.000
    O79     O    0.80412   0.47229   0.48326   1.000
    O80     O    0.19588   0.52773   0.51662   1.000
    O81     O    0.69588   0.52773   0.51662   1.000
    O82     O    0.55411   0.02772   0.51667   1.000
    O83     O    0.05412   0.02772   0.51667   1.000
    O84     O    0.62813   0.53328   0.56547   1.000
    O85     O    0.12813   0.53328   0.56548   1.000
    O86     O    0.12186   0.03327   0.56551   1.000
    O87     O    0.62186   0.03327   0.56551   1.000
    O88     O    0.12389   0.47339   0.62065   1.000
    O89     O    0.62389   0.47339   0.62065   1.000
    O90     O    0.12609   0.97340   0.62069   1.000
    O91     O    0.62609   0.97340   0.62069   1.000
    O92     O    0.87389   0.47337   0.87922   1.000
    O93     O    0.37389   0.47337   0.87922   1.000
    O94     O    0.37609   0.97339   0.87925   1.000
    O95     O    0.87609   0.97339   0.87925   1.000
    O96     O    0.37813   0.53325   0.93442   1.000
    O97     O    0.87813   0.53325   0.93442   1.000
    O98     O    0.37186   0.03327   0.93445   1.000
    O99     O    0.87186   0.03327   0.93445   1.000
    O100    O    0.94588   0.52772   0.98329   1.000
    O101    O    0.44588   0.52772   0.98328   1.000
    O102    O    0.80412   0.02773   0.98330   1.000
    O103    O    0.30412   0.02772   0.98330   1.000
    N104    N    0.02790   0.97542   0.11749   1.000
    O105    O    0.05401   0.97104   0.11444   1.000
    O106    O    0.00510   0.68131   0.02537   1.000
    O107    O    0.03409   0.95023   0.36536   1.000
    N108    N    0.72211   0.02460   0.61749   1.000
    O109    O    0.69600   0.02898   0.61445   1.000
    O110    O    0.74489   0.31869   0.52533   1.000
    O111    O    0.71594   0.04977   0.86536   1.000
    N112    N    0.22211   0.47548   0.11754   1.000
    O113    O    0.19600   0.47108   0.11449   1.000
    O114    O    0.24489   0.18137   0.02537   1.000
    O115    O    0.21594   0.45025   0.36536   1.000
    N116    N    0.72211   0.47548   0.11754   1.000
    O117    O    0.69600   0.47108   0.11449   1.000
    O118    O    0.74489   0.18137   0.02537   1.000
    O119    O    0.71594   0.45025   0.36536   1.000
    N120    N    0.27789   0.97544   0.38241   1.000
    O121    O    0.30400   0.97105   0.38546   1.000
    O122    O    0.28406   0.95027   0.13459   1.000
    O123    O    0.25511   0.68135   0.47458   1.000
    N124    N    0.97209   0.02461   0.88244   1.000
    O125    O    0.94599   0.02899   0.88549   1.000
    O126    O    0.99490   0.31873   0.97460   1.000
    O127    O    0.96591   0.04981   0.63458   1.000
    N128    N    0.22210   0.02460   0.61747   1.000
    O129    O    0.19600   0.02898   0.61442   1.000
    O130    O    0.24489   0.31868   0.52533   1.000
    O131    O    0.21594   0.04977   0.86530   1.000
    N132    N    0.27789   0.52455   0.88238   1.000
    O133    O    0.30400   0.52895   0.88544   1.000
    O134    O    0.28406   0.54979   0.63455   1.000
    O135    O    0.25511   0.81867   0.97458   1.000
    N136    N    0.97210   0.47545   0.38247   1.000
    O137    O    0.94600   0.47105   0.38552   1.000
    O138    O    0.96590   0.45023   0.13461   1.000
    O139    O    0.99490   0.18135   0.47460   1.000
    N140    N    0.47210   0.47544   0.38246   1.000
    O141    O    0.44600   0.47105   0.38551   1.000
    O142    O    0.46590   0.45022   0.13460   1.000
    O143    O    0.49490   0.18135   0.47459   1.000
    N144    N    0.77789   0.97544   0.38245   1.000
    O145    O    0.80400   0.97105   0.38550   1.000
    O146    O    0.78406   0.95027   0.13457   1.000
    O147    O    0.75511   0.68135   0.47458   1.000
    N148    N    0.77789   0.52455   0.88241   1.000
    O149    O    0.80400   0.52895   0.88546   1.000
    O150    O    0.78406   0.54979   0.63455   1.000
    O151    O    0.75511   0.81867   0.97459   1.000
    N152    N    0.47209   0.02461   0.88243   1.000
    O153    O    0.44599   0.02899   0.88549   1.000
    O154    O    0.46591   0.04980   0.63458   1.000
    O155    O    0.49491   0.31873   0.97459   1.000
    N156    N    0.52790   0.97542   0.11752   1.000
    O157    O    0.55401   0.97104   0.11446   1.000
    O158    O    0.50510   0.68131   0.02536   1.000
    O159    O    0.53409   0.95023   0.36536   1.000
    N160    N    0.52789   0.52459   0.61749   1.000
    O161    O    0.55400   0.52899   0.61444   1.000
    O162    O    0.50510   0.81868   0.52535   1.000
    O163    O    0.53410   0.54981   0.86532   1.000
    N164    N    0.02789   0.52459   0.61749   1.000
    O165    O    0.05400   0.52898   0.61444   1.000
    O166    O    0.00510   0.81868   0.52536   1.000
    O167    O    0.03410   0.54981   0.86536   1.000
loop_
    _geom_bond_atom_site_label_1
    _geom_bond_atom_site_label_2
    _geom_bond_distance
    _geom_bond_site_symmetry_2
    _ccdc_geom_bond_type
    Zr37   O56       0.63307      .   S
    Zr15   O56       0.63307      .   S
    Zr37   O57       1.18990      .   S
    Zr7    O57       1.18990  1_546   S
    Zr36   O58       0.63284      .   S
    Zr14   O58       0.63284      .   S
    Zr36   O59       1.18987      .   S
    Zr6    O59       1.18987  1_546   S
    Zr41   O60       0.63308      .   S
    Zr17   O60       0.63308      .   S
    Zr41   O61       1.18999      .   S
    Zr1    O61       1.18999  1_556   S
    Zr40   O62       0.63309      .   S
    Zr16   O62       0.63309      .   S
    Zr40   O63       1.19005      .   S
    Zr0    O63       1.19005  1_655   S
    Zr14   O64       0.62437  1_565   S
    Zr38   O64       0.62437      .   S
    Zr15   O65       0.62417  1_565   S
    Zr39   O65       0.62417      .   S
    Zr17   O66       0.62421      .   S
    Zr43   O66       0.62421      .   S
    Zr16   O67       0.62421      .   S
    Zr42   O67       0.62421      .   S
    Zr51   O68       0.62416      .   S
    Zr21   O68       0.62416  1_565   S
    Zr50   O69       0.62415      .   S
    Zr20   O69       0.62415  1_565   S
    Zr30   O70       0.62422      .   S
    Zr10   O70       0.62422      .   S
    Zr31   O71       0.62417      .   S
    Zr11   O71       0.62417      .   S
    Zr20   O72       0.63309      .   S
    Zr48   O72       0.63309      .   S
    Zr21   O73       0.63260      .   S
    Zr49   O73       0.63260      .   S
    Zr11   O74       0.63315      .   S
    Zr29   O74       0.63315      .   S
    Zr10   O75       0.63312      .   S
    Zr28   O75       0.63312      .   S
    Zr49   O76       1.19006      .   S
    Zr4    O76       1.19006  1_445   S
    Zr48   O77       1.18985      .   S
    Zr5    O77       1.18985  1_545   S
    Zr28   O78       1.18984      .   S
    Zr2    O78       1.18984      .   S
    Zr29   O79       1.18982      .   S
    Zr3    O79       1.18982      .   S
    Zr2    O80       1.19010      .   S
    Zr44   O80       1.19010      .   S
    Zr3    O81       1.19010      .   S
    Zr45   O81       1.19010      .   S
    Zr5    O82       1.18982      .   S
    Zr33   O82       1.18982      .   S
    Zr4    O83       1.18979      .   S
    Zr32   O83       1.18979      .   S
    Zr45   O84       0.63310      .   S
    Zr19   O84       0.63310      .   S
    Zr44   O85       0.63306      .   S
    Zr18   O85       0.63306      .   S
    Zr32   O86       0.63313      .   S
    Zr12   O86       0.63313      .   S
    Zr33   O87       0.63313      .   S
    Zr13   O87       0.63313      .   S
    Zr18   O88       0.62420      .   S
    Zr46   O88       0.62420      .   S
    Zr19   O89       0.62421      .   S
    Zr47   O89       0.62421      .   S
    Zr12   O90       0.62414  1_545   S
    Zr34   O90       0.62414      .   S
    Zr13   O91       0.62415  1_545   S
    Zr35   O91       0.62415      .   S
    Zr27   O92       0.62419      .   S
    Zr9    O92       0.62419      .   S
    Zr26   O93       0.62419      .   S
    Zr8    O93       0.62419      .   S
    Zr54   O94       0.62420      .   S
    Zr22   O94       0.62420  1_545   S
    Zr55   O95       0.62418      .   S
    Zr23   O95       0.62418  1_545   S
    Zr8    O96       0.63313      .   S
    Zr24   O96       0.63313      .   S
    Zr9    O97       0.63312      .   S
    Zr25   O97       0.63312      .   S
    Zr22   O98       0.63311      .   S
    Zr52   O98       0.63311      .   S
    Zr23   O99       0.63313      .   S
    Zr53   O99       0.63313      .   S
    Zr25   O100      1.19005      .   S
    Zr0    O100      1.19005  1_554   S
    Zr24   O101      1.19007      .   S
    Zr1    O101      1.19007      .   S
    Zr53   O102      1.18982      .   S
    Zr7    O102      1.18982      .   S
    Zr52   O103      1.18984      .   S
    Zr6    O103      1.18984      .   S
    N104   O105      0.53928      .   S
    Zr14   O105      1.28545      .   S
    N104   O106      4.00312      .   S
    Zr0    O106      2.32513  1_655   S
    N104   O107      3.82919      .   S
    Zr4    O107      2.27424  1_545   S
    N108   O109      0.53931      .   S
    Zr13   O109      1.28544      .   S
    N108   O110      4.00352      .   S
    Zr3    O110      2.32600      .   S
    N108   O111      3.82904      .   S
    Zr7    O111      2.27424      .   S
    N112   O113      0.53932      .   S
    Zr16   O113      1.28544      .   S
    N112   O114      4.00356      .   S
    Zr6    O114      2.32601  1_556   S
    N112   O115      3.82845      .   S
    Zr2    O115      2.27277      .   S
    N116   O117      0.53932      .   S
    Zr17   O117      1.28546      .   S
    N116   O118      4.00356      .   S
    Zr7    O118      2.32601  1_556   S
    N116   O119      3.82845      .   S
    Zr3    O119      2.27275      .   S
    N120   O121      0.53930      .   S
    Zr20   O121      1.28556      .   S
    N120   O122      3.82821      .   S
    Zr6    O122      2.27387  1_546   S
    N120   O123      4.00357      .   S
    Zr2    O123      2.32571      .   S
    N124   O125      0.53929      .   S
    Zr23   O125      1.28541      .   S
    N124   O126      4.00334      .   S
    Zr0    O126      2.32528  1_554   S
    N124   O127      3.82904      .   S
    Zr4    O127      2.27401  1_455   S
    N128   O129      0.53929      .   S
    Zr12   O129      1.28532      .   S
    N128   O130      4.00336      .   S
    Zr2    O130      2.32599      .   S
    N128   O131      3.82848      .   S
    Zr6    O131      2.27512      .   S
    N132   O133      0.53933      .   S
    Zr8    O133      1.28547      .   S
    N132   O134      3.82849      .   S
    Zr2    O134      2.27436      .   S
    N132   O135      4.00375      .   S
    Zr6    O135      2.32602  1_545   S
    N136   O137      0.53930      .   S
    Zr11   O137      1.28541      .   S
    N136   O138      3.82891      .   S
    Zr0    O138      2.27436      .   S
    N136   O139      4.00358      .   S
    Zr4    O139      2.32599  1_455   S
    N140   O141      0.53931      .   S
    Zr10   O141      1.28542      .   S
    N140   O142      3.82883      .   S
    Zr1    O142      2.27446  1_556   S
    N140   O143      4.00355      .   S
    Zr5    O143      2.32600      .   S
    N144   O145      0.53930      .   S
    Zr21   O145      1.28542      .   S
    N144   O146      3.82899      .   S
    Zr7    O146      2.27364  1_546   S
    N144   O147      4.00338      .   S
    Zr3    O147      2.32571      .   S
    N148   O149      0.53931      .   S
    Zr9    O149      1.28541      .   S
    N148   O150      3.82902      .   S
    Zr3    O150      2.27438      .   S
    N148   O151      4.00359      .   S
    Zr7    O151      2.32601  1_545   S
    N152   O153      0.53929      .   S
    Zr22   O153      1.28542      .   S
    N152   O154      3.82884      .   S
    Zr5    O154      2.27424      .   S
    N152   O155      4.00332      .   S
    Zr1    O155      2.32527      .   S
    N156   O157      0.53929      .   S
    Zr15   O157      1.28539      .   S
    N156   O158      4.00331      .   S
    Zr1    O158      2.32514  1_556   S
    N156   O159      3.82881      .   S
    Zr5    O159      2.27412  1_545   S
    N160   O161      0.53929      .   S
    Zr19   O161      1.28541      .   S
    N160   O162      4.00359      .   S
    Zr5    O162      2.32587  1_545   S
    N160   O163      3.82850      .   S
    Zr1    O163      2.27517      .   S
    N164   O165      0.53930      .   S
    Zr18   O165      1.28541      .   S
    N164   O166      4.00355      .   S
    Zr4    O166      2.32588  1_545   S
    N164   O167      3.82900      .   S
    Zr0    O167      2.27487  1_654   S
