# CIF file generated by openbabel 2.4.90, see http://openbabel.sf.net
data_I
_chemical_name_common ''
_cell_length_a 20.472
_cell_length_b 12.631
_cell_length_c 15.386
_cell_angle_alpha 90.011
_cell_angle_beta 90.002
_cell_angle_gamma 90.012
_space_group_name_H-M_alt 'P 1'
_space_group_name_Hall 'P 1'
loop_
    _symmetry_equiv_pos_as_xyz
    x,y,z
loop_
    _atom_site_label
    _atom_site_type_symbol
    _atom_site_fract_x
    _atom_site_fract_y
    _atom_site_fract_z
    _atom_site_occupancy
    N0      N    0.02790   0.97542   0.11749   1.000
    N1      N    0.72211   0.02460   0.61749   1.000
    N2      N    0.22211   0.47548   0.11754   1.000
    N3      N    0.72211   0.47548   0.11754   1.000
    N4      N    0.27789   0.97544   0.38241   1.000
    N5      N    0.97209   0.02461   0.88244   1.000
    N6      N    0.22210   0.02460   0.61747   1.000
    N7      N    0.27789   0.52455   0.88238   1.000
    N8      N    0.97210   0.47545   0.38247   1.000
    N9      N    0.47210   0.47544   0.38246   1.000
    N10     N    0.77789   0.97544   0.38245   1.000
    N11     N    0.77789   0.52455   0.88241   1.000
    N12     N    0.47209   0.02461   0.88243   1.000
    N13     N    0.52790   0.97542   0.11752   1.000
    N14     N    0.52789   0.52459   0.61749   1.000
    N15     N    0.02789   0.52459   0.61749   1.000
    Zr16    Zr   0.25000   0.50001   0.49997   1.000
    O17     O    0.25256   0.59068   0.48727   1.000
    O18     O    0.24744   0.40935   0.51265   1.000
    O19     O    0.23297   0.47513   0.43266   1.000
    O20     O    0.26703   0.52490   0.56726   1.000
    O21     O    0.15200   0.51450   0.55720   1.000
    O22     O    0.34800   0.48553   0.44274   1.000
    Zr23    Zr   1.00000   0.50001   0.99998   1.000
    O24     O    0.90200   0.51448   0.94272   1.000
    O25     O    0.09800   0.48555   0.05724   1.000
    O26     O    0.01705   0.52491   0.93267   1.000
    O27     O    0.98295   0.47512   0.06729   1.000
    O28     O    0.99745   0.40937   0.98729   1.000
    O29     O    0.00255   0.59066   0.01268   1.000
    Zr30    Zr   0.75000   0.50001   0.49997   1.000
    O31     O    0.84800   0.48553   0.44274   1.000
    O32     O    0.76703   0.52490   0.56726   1.000
    O33     O    0.74744   0.40935   0.51265   1.000
    O34     O    0.75256   0.59068   0.48727   1.000
    O35     O    0.73297   0.47513   0.43266   1.000
    O36     O    0.65200   0.51450   0.55720   1.000
    Zr37    Zr   0.50000   0.00001   0.49998   1.000
    O38     O    0.40200   0.98553   0.44272   1.000
    O39     O    0.59800   0.01450   0.55721   1.000
    O40     O    0.51705   0.97512   0.43267   1.000
    O41     O    0.49745   0.09068   0.48728   1.000
    O42     O    0.50255   0.90935   0.51266   1.000
    O43     O    0.48295   0.02491   0.56728   1.000
    Zr44    Zr   0.25000   0.00001   0.99997   1.000
    O45     O    0.15200   0.98553   0.05721   1.000
    O46     O    0.34799   0.01450   0.94273   1.000
    O47     O    0.25255   0.90934   0.98728   1.000
    O48     O    0.23297   0.02489   0.93264   1.000
    O49     O    0.26703   0.97514   0.06728   1.000
    O50     O    0.24744   0.09069   0.01267   1.000
    Zr51    Zr   0.75000   0.00001   0.99998   1.000
    O52     O    0.84800   0.01450   0.94273   1.000
    O53     O    0.65200   0.98552   0.05722   1.000
    O54     O    0.76703   0.97514   0.06728   1.000
    O55     O    0.75255   0.90934   0.98728   1.000
    O56     O    0.73297   0.02489   0.93267   1.000
    O57     O    0.74745   0.09069   0.01267   1.000
    Zr58    Zr   0.50000   0.50001   0.99998   1.000
    O59     O    0.59800   0.48555   0.05723   1.000
    O60     O    0.40200   0.51448   0.94271   1.000
    O61     O    0.48295   0.47512   0.06729   1.000
    O62     O    0.50255   0.59066   0.01267   1.000
    O63     O    0.51705   0.52491   0.93265   1.000
    O64     O    0.49745   0.40937   0.98728   1.000
    Zr65    Zr   1.00000   0.00001   0.49997   1.000
    O66     O    0.99745   0.09068   0.48728   1.000
    O67     O    0.01705   0.97512   0.43267   1.000
    O68     O    0.98295   0.02491   0.56727   1.000
    O69     O    0.00255   0.90935   0.51266   1.000
    O70     O    0.09800   0.01450   0.55719   1.000
    O71     O    0.90200   0.98553   0.44273   1.000
loop_
    _geom_bond_atom_site_label_1
    _geom_bond_atom_site_label_2
    _geom_bond_distance
    _geom_bond_site_symmetry_2
    _ccdc_geom_bond_type
    Zr16   O17       1.16297      .   S
    N4     O17       5.14710      .   S
    Zr16   O18       1.16287      .   S
    N6     O18       5.14679      .   S
    Zr16   O19       1.13683      .   S
    N2     O19       4.85360      .   S
    Zr16   O20       1.13673      .   S
    N7     O20       4.85349      .   S
    Zr16   O21       2.19870      .   S
    N15    O21       2.70774      .   S
    Zr16   O22       2.19864      .   S
    N9     O22       2.70769      .   S
    Zr23   O24       2.19881      .   S
    N11    O24       2.70781      .   S
    Zr23   O25       2.19881  1_656   S
    N2     O25       2.70783      .   S
    Zr23   O26       1.13731  1_655   S
    N15    O26       4.85442      .   S
    Zr23   O27       1.13730  1_556   S
    N8     O27       4.85438      .   S
    Zr23   O28       1.16255      .   S
    N5     O28       5.14646      .   S
    Zr23   O29       1.16265  1_656   S
    N0     O29       5.14638      .   S
    Zr30   O31       2.19864      .   S
    N8     O31       2.70769      .   S
    Zr30   O32       1.13675      .   S
    N11    O32       4.85402      .   S
    Zr30   O33       1.16287      .   S
    N1     O33       5.14694      .   S
    Zr30   O34       1.16299      .   S
    N10    O34       5.14695      .   S
    Zr30   O35       1.13681      .   S
    N3     O35       4.85360      .   S
    Zr30   O36       2.19868      .   S
    N14    O36       2.70772      .   S
    Zr37   O38       2.19873  1_545   S
    N4     O38       2.70773      .   S
    Zr37   O39       2.19860      .   S
    N1     O39       2.70761      .   S
    Zr37   O40       1.13711  1_545   S
    N13    O40       4.85408      .   S
    Zr37   O41       1.16301      .   S
    N9     O41       5.14714      .   S
    Zr37   O42       1.16293  1_545   S
    N14    O42       5.14707      .   S
    Zr37   O43       1.13707      .   S
    N12    O43       4.85407      .   S
    Zr44   O45       2.19857  1_546   S
    N0     O45       2.70758      .   S
    Zr44   O46       2.19862      .   S
    N12    O46       2.70766      .   S
    Zr44   O47       1.16297  1_545   S
    N7     O47       5.14726      .   S
    Zr44   O48       1.13744      .   S
    N6     O48       4.85434      .   S
    Zr44   O49       1.13706  1_546   S
    N4     O49       4.85365      .   S
    Zr44   O50       1.16304  1_556   S
    N2     O50       5.14717      .   S
    Zr51   O52       2.19864      .   S
    N5     O52       2.70767      .   S
    Zr51   O53       2.19862  1_546   S
    N13    O53       2.70765      .   S
    Zr51   O54       1.13691  1_546   S
    N10    O54       4.85428      .   S
    Zr51   O55       1.16296  1_545   S
    N11    O55       5.14711      .   S
    Zr51   O56       1.13703      .   S
    N1     O56       4.85446      .   S
    Zr51   O57       1.16305  1_556   S
    N3     O57       5.14716      .   S
    Zr58   O59       2.19880  1_556   S
    N3     O59       2.70782      .   S
    Zr58   O60       2.19886      .   S
    N7     O60       2.70795      .   S
    Zr58   O61       1.13728  1_556   S
    N9     O61       4.85428      .   S
    Zr58   O62       1.16263  1_556   S
    N13    O62       5.14651      .   S
    Zr58   O63       1.13753      .   S
    N14    O63       4.85416      .   S
    Zr58   O64       1.16257      .   S
    N12    O64       5.14647      .   S
    Zr65   O66       1.16299      .   S
    N8     O66       5.14712      .   S
    Zr65   O67       1.13704  1_645   S
    N0     O67       4.85439      .   S
    Zr65   O68       1.13708      .   S
    N5     O68       4.85428      .   S
    Zr65   O69       1.16295  1_645   S
    N15    O69       5.14710      .   S
    Zr65   O70       2.19854  1_655   S
    N6     O70       2.70756      .   S
    Zr65   O71       2.19858  1_545   S
    N10    O71       2.70762      .   S
