# CIF file generated by openbabel 2.4.90, see http://openbabel.sf.net
data_I
_chemical_name_common ''
_cell_length_a 12.563
_cell_length_b 12.561
_cell_length_c 25.828
_cell_angle_alpha 90
_cell_angle_beta 90
_cell_angle_gamma 89.992
_space_group_name_H-M_alt 'P 1'
_space_group_name_Hall 'P 1'
loop_
    _symmetry_equiv_pos_as_xyz
    x,y,z
loop_
    _atom_site_label
    _atom_site_type_symbol
    _atom_site_fract_x
    _atom_site_fract_y
    _atom_site_fract_z
    _atom_site_occupancy
    Mc0     Mc   0.51119   0.26105   0.55561   1.000
    Mc1     Mc   0.98883   0.23896   0.55561   1.000
    Mc2     Mc   0.73851   0.01685   0.77838   1.000
    Mc3     Mc   0.76151   0.48318   0.77838   1.000
    Mc4     Mc   0.01687   0.76153   0.72167   1.000
    Mc5     Mc   0.48314   0.73851   0.72167   1.000
    Mc6     Mc   0.26107   0.98887   0.94438   1.000
    Mc7     Mc   0.23893   0.51116   0.94439   1.000
    Mc8     Mc   0.23850   0.51685   0.22162   1.000
    Mc9     Mc   0.26150   0.98318   0.22162   1.000
    Mc10    Mc   0.01118   0.76107   0.44440   1.000
    Mc11    Mc   0.48882   0.73897   0.44439   1.000
    Mc12    Mc   0.76108   0.48887   0.05557   1.000
    Mc13    Mc   0.73894   0.01116   0.05558   1.000
    Mc14    Mc   0.51687   0.26152   0.27834   1.000
    Mc15    Mc   0.98314   0.23850   0.27832   1.000
