# CIF file generated by openbabel 2.4.90, see http://openbabel.sf.net
data_I
_chemical_name_common ''
_cell_length_a 12.563
_cell_length_b 12.561
_cell_length_c 25.828
_cell_angle_alpha 90
_cell_angle_beta 90
_cell_angle_gamma 89.992
_space_group_name_H-M_alt 'P 1'
_space_group_name_Hall 'P 1'
loop_
    _symmetry_equiv_pos_as_xyz
    x,y,z
loop_
    _atom_site_label
    _atom_site_type_symbol
    _atom_site_fract_x
    _atom_site_fract_y
    _atom_site_fract_z
    _atom_site_occupancy
    H0      H    0.50914   0.79596   0.92982   1.000
    H1      H    0.99088   0.70411   0.92983   1.000
    H2      H    0.20404   0.00919   0.42979   1.000
    H3      H    0.29596   0.49082   0.42979   1.000
    H4      H    0.49087   0.20410   0.07018   1.000
    H5      H    0.00913   0.29594   0.07018   1.000
    H6      H    0.79597   0.99083   0.57022   1.000
    H7      H    0.70405   0.50921   0.57022   1.000
    C8      C    0.75001   0.25001   0.66556   1.000
    C9      C    0.75001   0.25001   0.16552   1.000
    C10     C    0.25000   0.75003   0.33446   1.000
    C11     C    0.25000   0.75003   0.83449   1.000
