# CIF file generated by openbabel 2.4.90, see http://openbabel.sf.net
data_I
_chemical_name_common ''
_cell_length_a 12.563
_cell_length_b 12.561
_cell_length_c 25.828
_cell_angle_alpha 90
_cell_angle_beta 90
_cell_angle_gamma 89.992
_space_group_name_H-M_alt 'P 1'
_space_group_name_Hall 'P 1'
loop_
    _symmetry_equiv_pos_as_xyz
    x,y,z
loop_
    _atom_site_label
    _atom_site_type_symbol
    _atom_site_fract_x
    _atom_site_fract_y
    _atom_site_fract_z
    _atom_site_occupancy
    Cd0     Cd   0.25000   0.25000   0.41624   1.000
    Cd1     Cd   0.25000   0.25001   0.08376   1.000
    Cd2     Cd   0.75001   0.75002   0.58377   1.000
    Cd3     Cd   0.75001   0.75002   0.91625   1.000
    S4      S    0.55017   0.70695   0.90827   1.000
    S5      S    0.94984   0.79311   0.90826   1.000
    S6      S    0.29307   0.05019   0.40825   1.000
    S7      S    0.20693   0.44982   0.40825   1.000
    S8      S    0.44983   0.29309   0.09175   1.000
    S9      S    0.05017   0.20693   0.09174   1.000
    S10     S    0.70694   0.94984   0.59170   1.000
    S11     S    0.79308   0.55020   0.59175   1.000
loop_
    _geom_bond_atom_site_label_1
    _geom_bond_atom_site_label_2
    _geom_bond_distance
    _geom_bond_site_symmetry_2
    _ccdc_geom_bond_type
    Cd1    S9        2.57650      .   S
    Cd1    S8        2.57651      .   S
    S7     Cd0       2.57579      .   S
    S6     Cd0       2.57579      .   S
    Cd2    S10       2.57568      .   S
    Cd2    S11       2.57578      .   S
    S5     Cd3       2.57651      .   S
    S4     Cd3       2.57650      .   S
