# CIF file generated by openbabel 2.4.90, see http://openbabel.sf.net
data_I
_chemical_name_common ''
_cell_length_a 12.563
_cell_length_b 12.561
_cell_length_c 25.828
_cell_angle_alpha 90
_cell_angle_beta 90
_cell_angle_gamma 89.992
_space_group_name_H-M_alt 'P 1'
_space_group_name_Hall 'P 1'
loop_
    _symmetry_equiv_pos_as_xyz
    x,y,z
loop_
    _atom_site_label
    _atom_site_type_symbol
    _atom_site_fract_x
    _atom_site_fract_y
    _atom_site_fract_z
    _atom_site_occupancy
    N0      N    0.75001   0.25001   0.66556   1.000
    N1      N    0.25000   0.75003   0.83449   1.000
    N2      N    0.25000   0.75003   0.33446   1.000
    N3      N    0.75001   0.25001   0.16552   1.000
    Zr4     Zr   0.75001   0.75002   0.58907   1.000
    O5      O    0.66582   0.74447   0.62998   1.000
    O6      O    0.83420   0.75557   0.62997   1.000
    O7      O    0.83249   0.75558   0.54254   1.000
    O8      O    0.66752   0.74447   0.54254   1.000
    Zr9     Zr   0.25000   0.25001   0.08908   1.000
    O10     O    0.24445   0.33419   0.12996   1.000
    O11     O    0.25555   0.16583   0.12995   1.000
    O12     O    0.25556   0.16753   0.04254   1.000
    O13     O    0.24444   0.33249   0.04255   1.000
    Zr14    Zr   0.25000   0.25000   0.41091   1.000
    O15     O    0.16581   0.24446   0.37002   1.000
    O16     O    0.33420   0.25555   0.37002   1.000
    O17     O    0.16752   0.24445   0.45746   1.000
    O18     O    0.33249   0.25556   0.45746   1.000
    Zr19    Zr   0.75001   0.75003   0.91093   1.000
    O20     O    0.75557   0.66755   0.95745   1.000
    O21     O    0.74445   0.83250   0.95745   1.000
    O22     O    0.75556   0.66584   0.87004   1.000
    O23     O    0.74446   0.83420   0.87004   1.000
loop_
    _geom_bond_atom_site_label_1
    _geom_bond_atom_site_label_2
    _geom_bond_distance
    _geom_bond_site_symmetry_2
    _ccdc_geom_bond_type
    Zr4    O5        1.49654      .   S
    N1     O5        7.42937      .   S
    Zr4    O6        1.49652      .   S
    N1     O6        7.42924  1_455   S
    Zr4    O7        1.58844      .   S
    N2     O7        7.50996  1_455   S
    Zr4    O8        1.58850      .   S
    N2     O8        7.51003      .   S
    Zr9    O10       1.49588      .   S
    N2     O10       7.42868      .   S
    Zr9    O11       1.49571      .   S
    N2     O11       7.42854  1_565   S
    Zr9    O12       1.58839      .   S
    N1     O12       7.50890  1_566   S
    Zr9    O13       1.58835      .   S
    N1     O13       7.50922  1_556   S
    Zr14   O15       1.49643      .   S
    N3     O15       7.42892  1_655   S
    Zr14   O16       1.49636      .   S
    N3     O16       7.42912      .   S
    Zr14   O17       1.58866      .   S
    N0     O17       7.51034  1_655   S
    Zr14   O18       1.58868      .   S
    N0     O18       7.51051      .   S
    Zr19   O20       1.58812      .   S
    N3     O20       7.50942  1_554   S
    Zr19   O21       1.58814      .   S
    N3     O21       7.50914  1_544   S
    Zr19   O22       1.49597      .   S
    N0     O22       7.42842      .   S
    Zr19   O23       1.49591      .   S
    N0     O23       7.42813  1_545   S
