# CIF file generated by openbabel 2.4.90, see http://openbabel.sf.net
data_I
_chemical_name_common ''
_cell_length_a 12.563
_cell_length_b 12.561
_cell_length_c 25.828
_cell_angle_alpha 90
_cell_angle_beta 90
_cell_angle_gamma 89.992
_space_group_name_H-M_alt 'P 1'
_space_group_name_Hall 'P 1'
loop_
    _symmetry_equiv_pos_as_xyz
    x,y,z
loop_
    _atom_site_label
    _atom_site_type_symbol
    _atom_site_fract_x
    _atom_site_fract_y
    _atom_site_fract_z
    _atom_site_occupancy
    Zr0     Zr   0.75001   0.75002   0.91625   1.000
    Zr1     Zr   0.25000   0.25000   0.41624   1.000
    Zr2     Zr   0.25000   0.25001   0.08376   1.000
    Zr3     Zr   0.75001   0.75002   0.58377   1.000
    Zr4     Zr   0.55017   0.70695   0.90827   1.000
    Zr5     Zr   0.94984   0.79311   0.90826   1.000
    Zr6     Zr   0.29307   0.05019   0.40825   1.000
    Zr7     Zr   0.20693   0.44982   0.40825   1.000
    Zr8     Zr   0.44983   0.29309   0.09175   1.000
    Zr9     Zr   0.05017   0.20693   0.09174   1.000
    Zr10    Zr   0.70694   0.94984   0.59170   1.000
    Zr11    Zr   0.79308   0.55020   0.59175   1.000
    O12     O    0.15008   0.22847   0.08775   1.000
    O13     O    0.34992   0.27155   0.08776   1.000
    O14     O    0.22847   0.34991   0.41224   1.000
    O15     O    0.27154   0.15010   0.41224   1.000
    O16     O    0.72847   0.84993   0.58774   1.000
    O17     O    0.77154   0.65011   0.58776   1.000
    O18     O    0.84992   0.77157   0.91226   1.000
    O19     O    0.65009   0.72848   0.91226   1.000
    N20     N    0.75001   0.25001   0.66556   1.000
    O21     O    0.41498   0.26111   0.50400   1.000
    O22     O    0.08503   0.23890   0.50400   1.000
    O23     O    0.73891   0.91838   0.82916   1.000
    O24     O    0.76110   0.58166   0.82916   1.000
    N25     N    0.25000   0.75003   0.83449   1.000
    O26     O    0.91839   0.76112   0.67088   1.000
    O27     O    0.58162   0.73893   0.67088   1.000
    O28     O    0.26113   0.08506   0.99600   1.000
    O29     O    0.23887   0.41497   0.99601   1.000
    N30     N    0.25000   0.75003   0.33446   1.000
    O31     O    0.23891   0.41837   0.17084   1.000
    O32     O    0.26109   0.08165   0.17082   1.000
    O33     O    0.91498   0.76113   0.49601   1.000
    O34     O    0.58503   0.73891   0.49601   1.000
    N35     N    0.75001   0.25001   0.16552   1.000
    O36     O    0.76114   0.58507   0.00398   1.000
    O37     O    0.73888   0.91497   0.00398   1.000
    O38     O    0.41839   0.26110   0.32913   1.000
    O39     O    0.08162   0.23891   0.32912   1.000
    N40     N    0.00913   0.29594   0.07018   1.000
    O41     O    0.01939   0.27369   0.07557   1.000
    N42     N    0.99088   0.70411   0.92983   1.000
    O43     O    0.98062   0.72636   0.92444   1.000
    N44     N    0.49087   0.20410   0.07018   1.000
    O45     O    0.48061   0.22635   0.07557   1.000
    N46     N    0.29596   0.49082   0.42979   1.000
    O47     O    0.27370   0.48057   0.42441   1.000
    N48     N    0.79597   0.99083   0.57022   1.000
    O49     O    0.77371   0.98059   0.57559   1.000
    N50     N    0.50914   0.79596   0.92982   1.000
    O51     O    0.51940   0.77370   0.92443   1.000
    N52     N    0.20404   0.00919   0.42979   1.000
    O53     O    0.22630   0.01944   0.42441   1.000
    N54     N    0.70405   0.50921   0.57022   1.000
    O55     O    0.72630   0.51946   0.57560   1.000
loop_
    _geom_bond_atom_site_label_1
    _geom_bond_atom_site_label_2
    _geom_bond_distance
    _geom_bond_site_symmetry_2
    _ccdc_geom_bond_type
    Zr2    O12       1.28825      .   S
    Zr9    O12       1.28825      .   S
    Zr2    O13       1.28825      .   S
    Zr8    O13       1.28825      .   S
    Zr7    O14       1.28790      .   S
    Zr1    O14       1.28790      .   S
    Zr6    O15       1.28790      .   S
    Zr1    O15       1.28790      .   S
    Zr3    O16       1.28784      .   S
    Zr10   O16       1.28784      .   S
    Zr3    O17       1.28789      .   S
    Zr11   O17       1.28789      .   S
    Zr5    O18       1.28825      .   S
    Zr0    O18       1.28825      .   S
    Zr4    O19       1.28825      .   S
    Zr0    O19       1.28825      .   S
    N20    O21       5.92851      .   S
    Zr1    O21       3.07457      .   S
    N20    O22       5.92836  1_655   S
    Zr1    O22       3.07455      .   S
    N20    O23       5.93519  1_545   S
    Zr0    O23       3.09043      .   S
    N20    O24       5.93542      .   S
    Zr0    O24       3.09051      .   S
    N25    O26       5.93569  1_455   S
    Zr3    O26       3.09126      .   S
    N25    O27       5.93579      .   S
    Zr3    O27       3.09130      .   S
    N25    O28       5.92723  1_565   S
    Zr2    O28       3.07402  1_554   S
    N25    O29       5.92757      .   S
    Zr2    O29       3.07399  1_554   S
    N30    O31       5.93577      .   S
    Zr2    O31       3.09036      .   S
    N30    O32       5.93580  1_565   S
    Zr2    O32       3.08997      .   S
    N30    O33       5.92820  1_455   S
    Zr3    O33       3.07455      .   S
    N30    O34       5.92821      .   S
    Zr3    O34       3.07466      .   S
    N35    O36       5.92799      .   S
    Zr0    O36       3.07352  1_556   S
    N35    O37       5.92770  1_545   S
    Zr0    O37       3.07357  1_556   S
    N35    O38       5.93574      .   S
    Zr1    O38       3.09135      .   S
    N35    O39       5.93547  1_655   S
    Zr1    O39       3.09150      .   S
    N40    O41       0.33779      .   S
    Zr9    O41       1.01337      .   S
    N42    O43       0.33780      .   S
    Zr5    O43       1.01339      .   S
    N44    O45       0.33779      .   S
    Zr8    O45       1.01338      .   S
    N46    O47       0.33780      .   S
    Zr7    O47       1.01339      .   S
    N48    O49       0.33764      .   S
    Zr10   O49       1.01292      .   S
    N50    O51       0.33778      .   S
    Zr4    O51       1.01333      .   S
    N52    O53       0.33780      .   S
    Zr6    O53       1.01340      .   S
    N54    O55       0.33778      .   S
    Zr11   O55       1.01333      .   S
