# CIF file generated by openbabel 2.4.90, see http://openbabel.sf.net
data_I
_chemical_name_common ''
_cell_length_a 12.563
_cell_length_b 12.561
_cell_length_c 25.828
_cell_angle_alpha 90
_cell_angle_beta 90
_cell_angle_gamma 89.992
_space_group_name_H-M_alt 'P 1'
_space_group_name_Hall 'P 1'
loop_
    _symmetry_equiv_pos_as_xyz
    x,y,z
loop_
    _atom_site_label
    _atom_site_type_symbol
    _atom_site_fract_x
    _atom_site_fract_y
    _atom_site_fract_z
    _atom_site_occupancy
    N0      N    0.75001   0.25001   0.66556   1.000
    N1      N    0.25000   0.75003   0.83449   1.000
    N2      N    0.25000   0.75003   0.33446   1.000
    N3      N    0.75001   0.25001   0.16552   1.000
    N4      N    0.00913   0.29594   0.07018   1.000
    N5      N    0.99088   0.70411   0.92983   1.000
    N6      N    0.49087   0.20410   0.07018   1.000
    N7      N    0.29596   0.49082   0.42979   1.000
    N8      N    0.79597   0.99083   0.57022   1.000
    N9      N    0.50914   0.79596   0.92982   1.000
    N10     N    0.20404   0.00919   0.42979   1.000
    N11     N    0.70405   0.50921   0.57022   1.000
    Zr12    Zr   0.75001   0.75002   0.58907   1.000
    O13     O    0.73816   0.63474   0.58234   1.000
    O14     O    0.76186   0.86530   0.58233   1.000
    O15     O    0.66582   0.74447   0.62998   1.000
    O16     O    0.83420   0.75557   0.62997   1.000
    O17     O    0.83249   0.75558   0.54254   1.000
    O18     O    0.66752   0.74447   0.54254   1.000
    Zr19    Zr   0.25000   0.25001   0.08908   1.000
    O20     O    0.24445   0.33419   0.12996   1.000
    O21     O    0.25555   0.16583   0.12995   1.000
    O22     O    0.25556   0.16753   0.04254   1.000
    O23     O    0.24444   0.33249   0.04255   1.000
    O24     O    0.36531   0.23818   0.08233   1.000
    O25     O    0.13470   0.26185   0.08233   1.000
    Zr26    Zr   0.25000   0.25000   0.41091   1.000
    O27     O    0.16581   0.24446   0.37002   1.000
    O28     O    0.33420   0.25555   0.37002   1.000
    O29     O    0.16752   0.24445   0.45746   1.000
    O30     O    0.33249   0.25556   0.45746   1.000
    O31     O    0.26185   0.36529   0.41766   1.000
    O32     O    0.23815   0.13472   0.41766   1.000
    Zr33    Zr   0.75001   0.75003   0.91093   1.000
    O34     O    0.75557   0.66755   0.95745   1.000
    O35     O    0.74445   0.83250   0.95745   1.000
    O36     O    0.75556   0.66584   0.87004   1.000
    O37     O    0.74446   0.83420   0.87004   1.000
    O38     O    0.86531   0.73819   0.91768   1.000
    O39     O    0.63470   0.76187   0.91768   1.000
loop_
    _geom_bond_atom_site_label_1
    _geom_bond_atom_site_label_2
    _geom_bond_distance
    _geom_bond_site_symmetry_2
    _ccdc_geom_bond_type
    Zr12   O13       1.46606      .   S
    N11    O13       1.66372      .   S
    Zr12   O14       1.46608      .   S
    N8     O14       1.66369      .   S
    Zr12   O15       1.49654      .   S
    N1     O15       7.42937      .   S
    Zr12   O16       1.49652      .   S
    N1     O16       7.42924  1_455   S
    Zr12   O17       1.58844      .   S
    N2     O17       7.50996  1_455   S
    Zr12   O18       1.58850      .   S
    N2     O18       7.51003      .   S
    Zr19   O20       1.49588      .   S
    N2     O20       7.42868      .   S
    Zr19   O21       1.49571      .   S
    N2     O21       7.42854  1_565   S
    Zr19   O22       1.58839      .   S
    N1     O22       7.50890  1_566   S
    Zr19   O23       1.58835      .   S
    N1     O23       7.50922  1_556   S
    Zr19   O24       1.46658      .   S
    N6     O24       1.66432      .   S
    Zr19   O25       1.46658      .   S
    N4     O25       1.66430      .   S
    Zr26   O27       1.49643      .   S
    N3     O27       7.42892  1_655   S
    Zr26   O28       1.49636      .   S
    N3     O28       7.42912      .   S
    Zr26   O29       1.58866      .   S
    N0     O29       7.51034  1_655   S
    Zr26   O30       1.58868      .   S
    N0     O30       7.51051      .   S
    Zr26   O31       1.46609      .   S
    N7     O31       1.66378      .   S
    Zr26   O32       1.46609      .   S
    N10    O32       1.66379      .   S
    Zr33   O34       1.58812      .   S
    N3     O34       7.50942  1_554   S
    Zr33   O35       1.58814      .   S
    N3     O35       7.50914  1_544   S
    Zr33   O36       1.49597      .   S
    N0     O36       7.42842      .   S
    Zr33   O37       1.49591      .   S
    N0     O37       7.42813  1_545   S
    Zr33   O38       1.46658      .   S
    N5     O38       1.66432      .   S
    Zr33   O39       1.46656      .   S
    N9     O39       1.66428      .   S
