# CIF file generated by openbabel 2.4.90, see http://openbabel.sf.net
data_I
_chemical_name_common ''
_cell_length_a 16.086
_cell_length_b 16.097
_cell_length_c 16.095
_cell_angle_alpha 90.221
_cell_angle_beta 89.991
_cell_angle_gamma 89.731
_space_group_name_H-M_alt 'P 1'
_space_group_name_Hall 'P 1'
loop_
    _symmetry_equiv_pos_as_xyz
    x,y,z
loop_
    _atom_site_label
    _atom_site_type_symbol
    _atom_site_fract_x
    _atom_site_fract_y
    _atom_site_fract_z
    _atom_site_occupancy
    Cu0     Cu   0.99997   0.25020   0.74995   1.000
    Cu1     Cu   0.75033   0.50026   0.25026   1.000
    Cu2     Cu   0.74995   0.00009   0.24992   1.000
    Cu3     Cu   0.24990   0.74979   0.50007   1.000
    Cu4     Cu   0.25000   0.75010   0.00016   1.000
    Cu5     Cu   0.50009   0.75021   0.25003   1.000
    Cu6     Cu   0.00009   0.74955   0.24988   1.000
    Cu7     Cu   0.24967   0.50006   0.74970   1.000
    Cu8     Cu   0.25011   0.99984   0.75001   1.000
    Cu9     Cu   0.75010   0.25012   0.49989   1.000
    Cu10    Cu   0.75002   0.24973   0.00018   1.000
    Cu11    Cu   0.49996   0.24972   0.74996   1.000
    Ts12    Ts   0.02944   0.23112   0.72731   1.000
    Ts13    Ts   0.97044   0.27270   0.76917   1.000
    Ts14    Ts   0.97056   0.22766   0.73095   1.000
    Ts15    Ts   0.02942   0.26934   0.77233   1.000
    Ts16    Ts   0.76925   0.52954   0.22765   1.000
    Ts17    Ts   0.73136   0.52979   0.27297   1.000
    Ts18    Ts   0.77290   0.47068   0.23121   1.000
    Ts19    Ts   0.72786   0.47092   0.26924   1.000
    Ts20    Ts   0.76889   0.97067   0.27254   1.000
    Ts21    Ts   0.73089   0.97059   0.22748   1.000
    Ts22    Ts   0.72742   0.02955   0.23086   1.000
    Ts23    Ts   0.77267   0.02945   0.26879   1.000
    Ts24    Ts   0.26909   0.72729   0.47054   1.000
    Ts25    Ts   0.22721   0.76886   0.52953   1.000
    Ts26    Ts   0.27240   0.73066   0.52949   1.000
    Ts27    Ts   0.23088   0.77229   0.47062   1.000
    Ts28    Ts   0.26894   0.77273   0.02944   1.000
    Ts29    Ts   0.23127   0.72737   0.02951   1.000
    Ts30    Ts   0.27246   0.76902   0.97071   1.000
    Ts31    Ts   0.22736   0.73125   0.97072   1.000
    Ts32    Ts   0.47060   0.77280   0.23108   1.000
    Ts33    Ts   0.47071   0.72763   0.26888   1.000
    Ts34    Ts   0.52956   0.73144   0.27278   1.000
    Ts35    Ts   0.52954   0.76915   0.22756   1.000
    Ts36    Ts   0.02967   0.72691   0.23083   1.000
    Ts37    Ts   0.02949   0.77209   0.26891   1.000
    Ts38    Ts   0.97064   0.73054   0.22735   1.000
    Ts39    Ts   0.97064   0.76870   0.27249   1.000
    Ts40    Ts   0.23071   0.47071   0.77213   1.000
    Ts41    Ts   0.26870   0.47049   0.72708   1.000
    Ts42    Ts   0.22708   0.52957   0.76884   1.000
    Ts43    Ts   0.27220   0.52937   0.73078   1.000
    Ts44    Ts   0.23120   0.02926   0.72736   1.000
    Ts45    Ts   0.26920   0.02931   0.77243   1.000
    Ts46    Ts   0.27257   0.97036   0.76916   1.000
    Ts47    Ts   0.22740   0.97046   0.73118   1.000
    Ts48    Ts   0.77278   0.23109   0.47042   1.000
    Ts49    Ts   0.72766   0.26935   0.47046   1.000
    Ts50    Ts   0.73091   0.27259   0.52942   1.000
    Ts51    Ts   0.76912   0.22758   0.52932   1.000
    Ts52    Ts   0.72748   0.23088   0.02959   1.000
    Ts53    Ts   0.77267   0.26866   0.02960   1.000
    Ts54    Ts   0.73106   0.22720   0.97069   1.000
    Ts55    Ts   0.76886   0.27229   0.97083   1.000
    Ts56    Ts   0.52946   0.22718   0.76898   1.000
    Ts57    Ts   0.52936   0.27225   0.73112   1.000
    Ts58    Ts   0.47051   0.26860   0.72730   1.000
    Ts59    Ts   0.47053   0.23077   0.77237   1.000
loop_
    _geom_bond_atom_site_label_1
    _geom_bond_atom_site_label_2
    _geom_bond_distance
    _geom_bond_site_symmetry_2
    _ccdc_geom_bond_type
    Cu0    Ts12      0.67058  1_655   S
    Cu0    Ts13      0.67075      .   S
    Cu0    Ts14      0.67061      .   S
    Cu0    Ts15      0.67066  1_655   S
    Cu1    Ts16      0.67079      .   S
    Cu1    Ts17      0.67084      .   S
    Cu1    Ts18      0.67067      .   S
    Cu1    Ts19      0.67049      .   S
    Cu2    Ts20      0.67041  1_545   S
    Cu2    Ts21      0.67085  1_545   S
    Cu2    Ts22      0.67082      .   S
    Cu2    Ts23      0.67064      .   S
    Cu3    Ts24      0.67083      .   S
    Cu3    Ts25      0.67078      .   S
    Cu3    Ts26      0.67088      .   S
    Cu3    Ts27      0.67065      .   S
    Cu4    Ts28      0.66886      .   S
    Cu4    Ts29      0.67087      .   S
    Cu4    Ts30      0.67079  1_554   S
    Cu4    Ts31      0.67025  1_554   S
    Cu5    Ts32      0.67059      .   S
    Cu5    Ts33      0.67075      .   S
    Cu5    Ts34      0.67047      .   S
    Cu5    Ts35      0.67106      .   S
    Cu6    Ts36      0.67124      .   S
    Cu6    Ts37      0.67061      .   S
    Cu6    Ts38      0.67104  1_455   S
    Cu6    Ts39      0.67061  1_455   S
    Cu7    Ts40      0.67013      .   S
    Cu7    Ts41      0.67077      .   S
    Cu7    Ts42      0.67081      .   S
    Cu7    Ts43      0.67040      .   S
    Cu8    Ts44      0.67069  1_565   S
    Cu8    Ts45      0.67058  1_565   S
    Cu8    Ts46      0.67089      .   S
    Cu8    Ts47      0.67040      .   S
    Cu9    Ts48      0.67060      .   S
    Cu9    Ts49      0.67127      .   S
    Cu9    Ts50      0.67052      .   S
    Cu9    Ts51      0.67087      .   S
    Cu10   Ts52      0.67062      .   S
    Cu10   Ts53      0.67066      .   S
    Cu10   Ts54      0.67063  1_554   S
    Cu10   Ts55      0.67011  1_554   S
    Cu11   Ts56      0.67068      .   S
    Cu11   Ts57      0.67044      .   S
    Cu11   Ts58      0.67049      .   S
    Cu11   Ts59      0.67050      .   S
