# CIF file generated by openbabel 2.4.90, see http://openbabel.sf.net
data_I
_chemical_name_common ''
_cell_length_a 16.086
_cell_length_b 16.097
_cell_length_c 16.095
_cell_angle_alpha 90.221
_cell_angle_beta 89.991
_cell_angle_gamma 89.731
_space_group_name_H-M_alt 'P 1'
_space_group_name_Hall 'P 1'
loop_
    _symmetry_equiv_pos_as_xyz
    x,y,z
loop_
    _atom_site_label
    _atom_site_type_symbol
    _atom_site_fract_x
    _atom_site_fract_y
    _atom_site_fract_z
    _atom_site_occupancy
    Cu0     Cu   0.99997   0.25020   0.74995   1.000
    Cu1     Cu   0.75033   0.50026   0.25026   1.000
    Cu2     Cu   0.74995   0.00009   0.24992   1.000
    Cu3     Cu   0.24990   0.74979   0.50007   1.000
    Cu4     Cu   0.25000   0.75010   0.00016   1.000
    Cu5     Cu   0.50009   0.75021   0.25003   1.000
    Cu6     Cu   0.00009   0.74955   0.24988   1.000
    Cu7     Cu   0.24967   0.50006   0.74970   1.000
    Cu8     Cu   0.25011   0.99984   0.75001   1.000
    Cu9     Cu   0.75010   0.25012   0.49989   1.000
    Cu10    Cu   0.75002   0.24973   0.00018   1.000
    Cu11    Cu   0.49996   0.24972   0.74996   1.000
