# CIF file generated by openbabel 2.4.90, see http://openbabel.sf.net
data_I
_chemical_name_common ''
_cell_length_a 16.086
_cell_length_b 16.097
_cell_length_c 16.095
_cell_angle_alpha 90.221
_cell_angle_beta 89.991
_cell_angle_gamma 89.731
_space_group_name_H-M_alt 'P 1'
_space_group_name_Hall 'P 1'
loop_
    _symmetry_equiv_pos_as_xyz
    x,y,z
loop_
    _atom_site_label
    _atom_site_type_symbol
    _atom_site_fract_x
    _atom_site_fract_y
    _atom_site_fract_z
    _atom_site_occupancy
    C0      C    0.49996   0.24972   0.74996   1.000
    C1      C    0.99997   0.25020   0.74995   1.000
    C2      C    0.75033   0.50026   0.25026   1.000
    C3      C    0.74995   0.00009   0.24992   1.000
    C4      C    0.24990   0.74979   0.50007   1.000
    C5      C    0.25000   0.75010   0.00016   1.000
    C6      C    0.50009   0.75021   0.25003   1.000
    C7      C    0.00009   0.74955   0.24988   1.000
    C8      C    0.24967   0.50006   0.74970   1.000
    C9      C    0.25011   0.99984   0.75001   1.000
    C10     C    0.75010   0.25012   0.49989   1.000
    C11     C    0.75002   0.24973   0.00018   1.000
    C12     C    0.57672   0.07822   0.73302   1.000
    C13     C    0.92289   0.42161   0.73441   1.000
    C14     C    0.92376   0.07918   0.76693   1.000
    C15     C    0.57592   0.42079   0.76808   1.000
    C16     C    0.73339   0.57568   0.07861   1.000
    C17     C    0.73271   0.92433   0.42143   1.000
    C18     C    0.76662   0.92314   0.07889   1.000
    C19     C    0.76757   0.57746   0.42200   1.000
    C20     C    0.07819   0.73333   0.57669   1.000
    C21     C    0.42115   0.73254   0.92371   1.000
    C22     C    0.07839   0.76806   0.92405   1.000
    C23     C    0.42132   0.76558   0.57640   1.000
    C24     C    0.57843   0.07698   0.26643   1.000
    C25     C    0.92183   0.42318   0.26700   1.000
    C26     C    0.57923   0.42473   0.23331   1.000
    C27     C    0.92167   0.07587   0.23228   1.000
    C28     C    0.07659   0.23423   0.92094   1.000
    C29     C    0.42355   0.23174   0.57848   1.000
    C30     C    0.42349   0.26694   0.92112   1.000
    C31     C    0.07638   0.26660   0.57840   1.000
    C32     C    0.23421   0.57845   0.42314   1.000
    C33     C    0.23281   0.92198   0.07658   1.000
    C34     C    0.26852   0.57842   0.07594   1.000
    C35     C    0.26668   0.92075   0.42360   1.000
    C36     C    0.42343   0.92194   0.26710   1.000
    C37     C    0.07751   0.57781   0.26610   1.000
    C38     C    0.07626   0.92054   0.23296   1.000
    C39     C    0.42444   0.57889   0.23218   1.000
    C40     C    0.26674   0.42431   0.92075   1.000
    C41     C    0.26753   0.07568   0.57847   1.000
    C42     C    0.23367   0.07654   0.92111   1.000
    C43     C    0.23264   0.42288   0.57823   1.000
    C44     C    0.92178   0.26671   0.42325   1.000
    C45     C    0.57857   0.26745   0.07661   1.000
    C46     C    0.92166   0.23199   0.07642   1.000
    C47     C    0.57888   0.23462   0.42349   1.000
    C48     C    0.42140   0.92287   0.73378   1.000
    C49     C    0.07801   0.57698   0.73336   1.000
    C50     C    0.42100   0.57563   0.76680   1.000
    C51     C    0.07848   0.92394   0.76780   1.000
    C52     C    0.92368   0.76563   0.07836   1.000
    C53     C    0.57663   0.76858   0.42175   1.000
    C54     C    0.57670   0.73286   0.07885   1.000
    C55     C    0.92384   0.73341   0.42137   1.000
    C56     C    0.76599   0.42125   0.57697   1.000
    C57     C    0.76729   0.07826   0.92357   1.000
    C58     C    0.73199   0.42099   0.92470   1.000
    C59     C    0.73338   0.07900   0.57617   1.000
    C60     C    0.69112   0.99909   0.80929   1.000
    C61     C    0.80812   0.50039   0.81110   1.000
    C62     C    0.80972   0.00018   0.69048   1.000
    C63     C    0.68966   0.50000   0.69193   1.000
    C64     C    0.80974   0.68907   0.99939   1.000
    C65     C    0.80943   0.81031   0.50049   1.000
    C66     C    0.69071   0.80875   0.99983   1.000
    C67     C    0.69100   0.69229   0.50084   1.000
    C68     C    0.99937   0.80998   0.69139   1.000
    C69     C    0.50037   0.80837   0.80981   1.000
    C70     C    0.99907   0.69178   0.80993   1.000
    C71     C    0.50023   0.68910   0.69056   1.000
    C72     C    0.49944   0.19148   0.19046   1.000
    C73     C    0.00000   0.30834   0.19057   1.000
    C74     C    0.49994   0.31115   0.30940   1.000
    C75     C    0.00000   0.18990   0.30870   1.000
    C76     C    0.19072   0.31059   0.99988   1.000
    C77     C    0.30915   0.30800   0.49934   1.000
    C78     C    0.30960   0.19090   0.00000   1.000
    C79     C    0.19090   0.18974   0.49938   1.000
    C80     C    0.31085   0.49959   0.30846   1.000
    C81     C    0.30918   0.00000   0.19072   1.000
    C82     C    0.19233   0.49910   0.18951   1.000
    C83     C    0.19034   0.99954   0.30933   1.000
    C84     C    0.61071   0.10491   0.78536   1.000
    C85     C    0.88892   0.39482   0.78652   1.000
    C86     C    0.88975   0.10567   0.71455   1.000
    C87     C    0.60995   0.39432   0.71549   1.000
    C88     C    0.78561   0.60973   0.10525   1.000
    C89     C    0.78517   0.89011   0.39483   1.000
    C90     C    0.71443   0.88924   0.10554   1.000
    C91     C    0.71508   0.61138   0.39537   1.000
    C92     C    0.10483   0.78563   0.61073   1.000
    C93     C    0.39453   0.78492   0.88978   1.000
    C94     C    0.10492   0.71550   0.88993   1.000
    C95     C    0.39456   0.71354   0.61042   1.000
    C96     C    0.60517   0.11088   0.21429   1.000
    C97     C    0.89517   0.38913   0.21466   1.000
    C98     C    0.60579   0.39061   0.28550   1.000
    C99     C    0.89512   0.11001   0.28478   1.000
    C100    C    0.11051   0.28633   0.89425   1.000
    C101    C    0.38950   0.28437   0.60497   1.000
    C102    C    0.38959   0.21463   0.89443   1.000
    C103    C    0.11051   0.21427   0.60499   1.000
    C104    C    0.28632   0.60518   0.38912   1.000
    C105    C    0.28517   0.89524   0.11059   1.000
    C106    C    0.21588   0.60488   0.10990   1.000
    C107    C    0.21440   0.89418   0.38961   1.000
    C108    C    0.38944   0.89522   0.21478   1.000
    C109    C    0.11138   0.60457   0.21396   1.000
    C110    C    0.11028   0.89405   0.28533   1.000
    C111    C    0.39032   0.60540   0.28470   1.000
    C112    C    0.21450   0.39025   0.89416   1.000
    C113    C    0.21504   0.10988   0.60502   1.000
    C114    C    0.28580   0.11051   0.89442   1.000
    C115    C    0.28510   0.38889   0.60480   1.000
    C116    C    0.89517   0.21437   0.38924   1.000
    C117    C    0.60523   0.21505   0.11048   1.000
    C118    C    0.89509   0.28458   0.11046   1.000
    C119    C    0.60563   0.28668   0.38954   1.000
    C120    C    0.39465   0.88899   0.78593   1.000
    C121    C    0.10473   0.61100   0.78567   1.000
    C122    C    0.39440   0.60967   0.71453   1.000
    C123    C    0.10498   0.88987   0.71531   1.000
    C124    C    0.88970   0.71361   0.10512   1.000
    C125    C    0.61063   0.71592   0.39525   1.000
    C126    C    0.61059   0.78519   0.10552   1.000
    C127    C    0.88968   0.78572   0.39478   1.000
    C128    C    0.71387   0.39454   0.61099   1.000
    C129    C    0.71491   0.10493   0.88955   1.000
    C130    C    0.78452   0.39451   0.89055   1.000
    C131    C    0.78564   0.10558   0.61025   1.000
    C132    C    0.62609   0.22187   0.87402   1.000
    C133    C    0.67355   0.06203   0.82677   1.000
    C134    C    0.87378   0.27785   0.87430   1.000
    C135    C    0.82586   0.43751   0.82814   1.000
    C136    C    0.87403   0.22212   0.62597   1.000
    C137    C    0.82709   0.06289   0.67305   1.000
    C138    C    0.62584   0.27777   0.62616   1.000
    C139    C    0.67243   0.43722   0.67414   1.000
    C140    C    0.87405   0.62585   0.22202   1.000
    C141    C    0.82708   0.67204   0.06232   1.000
    C142    C    0.87391   0.87396   0.27812   1.000
    C143    C    0.82682   0.82747   0.43764   1.000
    C144    C    0.62595   0.87405   0.22237   1.000
    C145    C    0.67321   0.82640   0.06269   1.000
    C146    C    0.62621   0.62647   0.27886   1.000
    C147    C    0.67350   0.67450   0.43808   1.000
    C148    C    0.22141   0.87392   0.62621   1.000
    C149    C    0.06214   0.82723   0.67378   1.000
    C150    C    0.27766   0.87393   0.87423   1.000
    C151    C    0.43746   0.82609   0.82720   1.000
    C152    C    0.22166   0.62628   0.87406   1.000
    C153    C    0.06197   0.67408   0.82723   1.000
    C154    C    0.27765   0.62575   0.62596   1.000
    C155    C    0.43732   0.67203   0.67314   1.000
    C156    C    0.72208   0.12607   0.12597   1.000
    C157    C    0.56236   0.17380   0.17304   1.000
    C158    C    0.77835   0.37381   0.12614   1.000
    C159    C    0.93798   0.32603   0.17318   1.000
    C160    C    0.72259   0.37446   0.37410   1.000
    C161    C    0.56285   0.32821   0.32685   1.000
    C162    C    0.77860   0.12606   0.37375   1.000
    C163    C    0.93792   0.17269   0.32629   1.000
    C164    C    0.12589   0.37432   0.77744   1.000
    C165    C    0.17322   0.32778   0.93703   1.000
    C166    C    0.37385   0.37371   0.72150   1.000
    C167    C    0.32663   0.32577   0.56211   1.000
    C168    C    0.37413   0.12587   0.77751   1.000
    C169    C    0.32702   0.17334   0.93720   1.000
    C170    C    0.12619   0.12600   0.72163   1.000
    C171    C    0.17344   0.17255   0.56219   1.000
    C172    C    0.37417   0.72207   0.37382   1.000
    C173    C    0.32793   0.56244   0.32612   1.000
    C174    C    0.37392   0.77829   0.12610   1.000
    C175    C    0.32664   0.93812   0.17331   1.000
    C176    C    0.12637   0.72129   0.12593   1.000
    C177    C    0.17451   0.56193   0.17237   1.000
    C178    C    0.12596   0.77765   0.37398   1.000
    C179    C    0.17295   0.93685   0.32680   1.000
    C180    C    0.58846   0.18210   0.80703   1.000
    C181    C    0.91138   0.31769   0.80760   1.000
    C182    C    0.91174   0.18258   0.69296   1.000
    C183    C    0.58814   0.31733   0.69344   1.000
    C184    C    0.80709   0.58812   0.18243   1.000
    C185    C    0.80676   0.91185   0.31777   1.000
    C186    C    0.69276   0.91159   0.18260   1.000
    C187    C    0.69342   0.58887   0.31839   1.000
    C188    C    0.18183   0.80699   0.58844   1.000
    C189    C    0.31737   0.80686   0.91182   1.000
    C190    C    0.18206   0.69356   0.91184   1.000
    C191    C    0.31739   0.69241   0.58832   1.000
    C192    C    0.68234   0.08848   0.19275   1.000
    C193    C    0.81805   0.41151   0.19311   1.000
    C194    C    0.68293   0.41224   0.30719   1.000
    C195    C    0.81810   0.08819   0.30652   1.000
    C196    C    0.08833   0.30762   0.81710   1.000
    C197    C    0.41160   0.30638   0.68197   1.000
    C198    C    0.41165   0.19287   0.81720   1.000
    C199    C    0.08839   0.19295   0.68203   1.000
    C200    C    0.30748   0.68229   0.41148   1.000
    C201    C    0.30681   0.81800   0.08800   1.000
    C202    C    0.19381   0.68193   0.08821   1.000
    C203    C    0.19284   0.81729   0.41172   1.000
    C204    C    0.41160   0.81798   0.19319   1.000
    C205    C    0.08881   0.68162   0.19274   1.000
    C206    C    0.08827   0.81716   0.30696   1.000
    C207    C    0.41196   0.68248   0.30659   1.000
    C208    C    0.19280   0.41203   0.81700   1.000
    C209    C    0.19337   0.08810   0.68205   1.000
    C210    C    0.30738   0.08826   0.81727   1.000
    C211    C    0.30675   0.41136   0.68185   1.000
    C212    C    0.81815   0.19305   0.41147   1.000
    C213    C    0.68240   0.19318   0.08841   1.000
    C214    C    0.81797   0.30650   0.08845   1.000
    C215    C    0.68279   0.30781   0.41160   1.000
    C216    C    0.31748   0.91142   0.80746   1.000
    C217    C    0.18189   0.58861   0.80711   1.000
    C218    C    0.31725   0.58801   0.69294   1.000
    C219    C    0.18197   0.91172   0.69352   1.000
    C220    C    0.91172   0.69251   0.18229   1.000
    C221    C    0.58849   0.69390   0.31827   1.000
    C222    C    0.58844   0.80703   0.18262   1.000
    C223    C    0.91172   0.80700   0.31771   1.000
    C224    C    0.69253   0.31753   0.58848   1.000
    C225    C    0.69314   0.18212   0.91170   1.000
    C226    C    0.80653   0.31741   0.91214   1.000
    C227    C    0.80717   0.18249   0.58819   1.000
    C228    C    0.60084   0.29074   0.89910   1.000
    C229    C    0.89919   0.20908   0.89904   1.000
    C230    C    0.89899   0.29073   0.60098   1.000
    C231    C    0.60099   0.20907   0.60080   1.000
    C232    C    0.89915   0.60102   0.29080   1.000
    C233    C    0.89903   0.89888   0.20945   1.000
    C234    C    0.60082   0.89930   0.29117   1.000
    C235    C    0.60090   0.60089   0.21031   1.000
    C236    C    0.29004   0.89888   0.60095   1.000
    C237    C    0.20880   0.89926   0.89926   1.000
    C238    C    0.29047   0.60093   0.89904   1.000
    C239    C    0.20886   0.60096   0.60080   1.000
    C240    C    0.79095   0.10077   0.10087   1.000
    C241    C    0.70958   0.39917   0.10103   1.000
    C242    C    0.79139   0.39918   0.39921   1.000
    C243    C    0.70997   0.10112   0.39902   1.000
    C244    C    0.10076   0.39917   0.70869   1.000
    C245    C    0.39900   0.39912   0.79016   1.000
    C246    C    0.39922   0.10070   0.70867   1.000
    C247    C    0.10103   0.10112   0.79031   1.000
    C248    C    0.39895   0.79080   0.39916   1.000
    C249    C    0.39920   0.70945   0.10092   1.000
    C250    C    0.10075   0.78992   0.10097   1.000
    C251    C    0.10095   0.70909   0.39906   1.000
    O252    O    0.31831   0.18212   0.96860   1.000
    O253    O    0.27841   0.78405   0.04408   1.000
    O254    O    0.22191   0.71601   0.04419   1.000
    O255    O    0.28368   0.77848   0.95599   1.000
    O256    O    0.21603   0.72183   0.95600   1.000
    O257    O    0.71621   0.22146   0.04430   1.000
    O258    O    0.78400   0.27812   0.04432   1.000
    O259    O    0.72158   0.21593   0.95594   1.000
    O260    O    0.77827   0.28357   0.95616   1.000
    O261    O    0.85839   0.69282   0.08372   1.000
    O262    O    0.80634   0.64088   0.08379   1.000
    O263    O    0.81841   0.68055   0.03086   1.000
    O264    O    0.64190   0.80579   0.08411   1.000
    O265    O    0.69382   0.85782   0.08412   1.000
    O266    O    0.68196   0.81757   0.03126   1.000
    O267    O    0.24220   0.59165   0.09292   1.000
    O268    O    0.90837   0.25828   0.09344   1.000
    O269    O    0.25899   0.90861   0.09359   1.000
    O270    O    0.59190   0.24125   0.09355   1.000
    O271    O    0.90669   0.73962   0.09174   1.000
    O272    O    0.75950   0.59271   0.09193   1.000
    O273    O    0.59364   0.75902   0.09219   1.000
    O274    O    0.74053   0.90619   0.09222   1.000
    O275    O    0.29599   0.85662   0.09930   1.000
    O276    O    0.34037   0.79815   0.10705   1.000
    O277    O    0.20484   0.64340   0.09906   1.000
    O278    O    0.16009   0.70161   0.10707   1.000
    O279    O    0.64381   0.20411   0.09945   1.000
    O280    O    0.70224   0.15962   0.10719   1.000
    O281    O    0.85653   0.29554   0.09946   1.000
    O282    O    0.79816   0.34016   0.10730   1.000
    O283    O    0.75651   0.11342   0.11342   1.000
    O284    O    0.38656   0.74387   0.11351   1.000
    O285    O    0.11356   0.75561   0.11345   1.000
    O286    O    0.74397   0.38649   0.11359   1.000
    O287    O    0.90071   0.70305   0.14371   1.000
    O288    O    0.79635   0.59893   0.14384   1.000
    O289    O    0.59951   0.79611   0.14407   1.000
    O290    O    0.70360   0.90042   0.14407   1.000
    O291    O    0.19519   0.58340   0.14114   1.000
    O292    O    0.91654   0.30531   0.14182   1.000
    O293    O    0.58379   0.19443   0.14176   1.000
    O294    O    0.30591   0.91668   0.14195   1.000
    O295    O    0.10759   0.70146   0.15934   1.000
    O296    O    0.70221   0.10727   0.15936   1.000
    O297    O    0.39276   0.79814   0.15965   1.000
    O298    O    0.79820   0.39266   0.15963   1.000
    O299    O    0.18342   0.53051   0.18094   1.000
    O300    O    0.14295   0.58325   0.19317   1.000
    O301    O    0.53090   0.18264   0.18175   1.000
    O302    O    0.58376   0.14234   0.19367   1.000
    O303    O    0.96899   0.31719   0.18188   1.000
    O304    O    0.91658   0.35758   0.19392   1.000
    O305    O    0.31791   0.96906   0.18202   1.000
    O306    O    0.35804   0.91667   0.19405   1.000
    O307    O    0.89288   0.65918   0.20216   1.000
    O308    O    0.95591   0.72103   0.21609   1.000
    O309    O    0.84057   0.60698   0.20223   1.000
    O310    O    0.77871   0.54419   0.21635   1.000
    O311    O    0.65936   0.89282   0.20249   1.000
    O312    O    0.72136   0.95584   0.21626   1.000
    O313    O    0.60719   0.84054   0.20250   1.000
    O314    O    0.54427   0.77862   0.21633   1.000
    O315    O    0.10010   0.64310   0.20335   1.000
    O316    O    0.04445   0.71559   0.22131   1.000
    O317    O    0.64376   0.09968   0.20352   1.000
    O318    O    0.71615   0.04428   0.22134   1.000
    O319    O    0.85661   0.40032   0.20389   1.000
    O320    O    0.78419   0.45589   0.22169   1.000
    O321    O    0.40052   0.85660   0.20399   1.000
    O322    O    0.45585   0.78410   0.22161   1.000
    O323    O    0.88647   0.88642   0.24379   1.000
    O324    O    0.61356   0.61368   0.24459   1.000
    O325    O    0.09445   0.59119   0.24003   1.000
    O326    O    0.59180   0.09393   0.24036   1.000
    O327    O    0.90850   0.40615   0.24083   1.000
    O328    O    0.40643   0.90858   0.24094   1.000
    O329    O    0.88660   0.61343   0.25641   1.000
    O330    O    0.61338   0.88667   0.25677   1.000
    O331    O    0.40738   0.59214   0.25844   1.000
    O332    O    0.90839   0.09294   0.25853   1.000
    O333    O    0.09327   0.90730   0.25915   1.000
    O334    O    0.59251   0.40767   0.25941   1.000
    O335    O    0.04418   0.78335   0.27842   1.000
    O336    O    0.95591   0.77828   0.28380   1.000
    O337    O    0.78403   0.04414   0.27822   1.000
    O338    O    0.77836   0.95597   0.28385   1.000
    O339    O    0.45602   0.71634   0.27831   1.000
    O340    O    0.54429   0.72205   0.28415   1.000
    O341    O    0.71663   0.45625   0.27873   1.000
    O342    O    0.72188   0.54456   0.28433   1.000
    O343    O    0.89281   0.84048   0.29792   1.000
    O344    O    0.84034   0.89290   0.29795   1.000
    O345    O    0.60735   0.66018   0.29857   1.000
    O346    O    0.65982   0.60767   0.29863   1.000
    O347    O    0.40114   0.64394   0.29565   1.000
    O348    O    0.35913   0.58392   0.30541   1.000
    O349    O    0.85661   0.09910   0.29565   1.000
    O350    O    0.91652   0.14135   0.30554   1.000
    O351    O    0.09927   0.85560   0.29615   1.000
    O352    O    0.14161   0.91545   0.30607   1.000
    O353    O    0.64436   0.40143   0.29635   1.000
    O354    O    0.58432   0.35941   0.30618   1.000
    O355    O    0.79835   0.10713   0.34014   1.000
    O356    O    0.39306   0.70227   0.34021   1.000
    O357    O    0.10711   0.79740   0.34047   1.000
    O358    O    0.70276   0.39335   0.34065   1.000
    O359    O    0.31939   0.53101   0.31729   1.000
    O360    O    0.96896   0.18129   0.31750   1.000
    O361    O    0.18165   0.96819   0.31807   1.000
    O362    O    0.53140   0.31968   0.31813   1.000
    O363    O    0.90070   0.79636   0.35625   1.000
    O364    O    0.79596   0.90098   0.35630   1.000
    O365    O    0.59956   0.70491   0.35676   1.000
    O366    O    0.70425   0.60012   0.35688   1.000
    O367    O    0.30712   0.58381   0.35762   1.000
    O368    O    0.91655   0.19353   0.35777   1.000
    O369    O    0.19367   0.91551   0.35821   1.000
    O370    O    0.58424   0.30744   0.35820   1.000
    O371    O    0.74429   0.11359   0.38639   1.000
    O372    O    0.79837   0.15955   0.39261   1.000
    O373    O    0.38656   0.75643   0.38649   1.000
    O374    O    0.34083   0.70218   0.39265   1.000
    O375    O    0.11345   0.74337   0.38652   1.000
    O376    O    0.15940   0.79747   0.39285   1.000
    O377    O    0.75699   0.38682   0.38666   1.000
    O378    O    0.70269   0.34114   0.39285   1.000
    O379    O    0.29690   0.64373   0.40030   1.000
    O380    O    0.26027   0.59182   0.40613   1.000
    O381    O    0.85666   0.20371   0.40036   1.000
    O382    O    0.90848   0.24054   0.40625   1.000
    O383    O    0.64421   0.29724   0.40057   1.000
    O384    O    0.59225   0.26065   0.40652   1.000
    O385    O    0.20362   0.85573   0.40067   1.000
    O386    O    0.24054   0.90746   0.40661   1.000
    O387    O    0.90676   0.75956   0.40808   1.000
    O388    O    0.85825   0.80659   0.41621   1.000
    O389    O    0.75894   0.90722   0.40813   1.000
    O390    O    0.80599   0.85879   0.41624   1.000
    O391    O    0.59363   0.74225   0.40850   1.000
    O392    O    0.64207   0.69521   0.41667   1.000
    O393    O    0.74132   0.59442   0.40869   1.000
    O394    O    0.69429   0.64294   0.41673   1.000
    O395    O    0.78412   0.22158   0.45568   1.000
    O396    O    0.27869   0.71604   0.45578   1.000
    O397    O    0.71644   0.27896   0.45575   1.000
    O398    O    0.22137   0.78354   0.45590   1.000
    O399    O    0.81813   0.81889   0.46907   1.000
    O400    O    0.68225   0.68339   0.46946   1.000
    O401    O    0.31789   0.31689   0.53073   1.000
    O402    O    0.18217   0.18115   0.53079   1.000
    O403    O    0.77863   0.21630   0.54404   1.000
    O404    O    0.72132   0.28382   0.54419   1.000
    O405    O    0.28365   0.72110   0.54420   1.000
    O406    O    0.21586   0.77839   0.54426   1.000
    O407    O    0.30587   0.35733   0.58346   1.000
    O408    O    0.35806   0.30507   0.58354   1.000
    O409    O    0.14197   0.19341   0.58359   1.000
    O410    O    0.19424   0.14122   0.58361   1.000
    O411    O    0.75951   0.09229   0.59321   1.000
    O412    O    0.40794   0.73956   0.59341   1.000
    O413    O    0.09151   0.75948   0.59371   1.000
    O414    O    0.73993   0.40790   0.59398   1.000
    O415    O    0.25887   0.40589   0.59152   1.000
    O416    O    0.09344   0.24043   0.59170   1.000
    O417    O    0.24129   0.09278   0.59175   1.000
    O418    O    0.40652   0.25806   0.59173   1.000
    O419    O    0.79641   0.14403   0.59922   1.000
    O420    O    0.84060   0.20230   0.60708   1.000
    O421    O    0.35598   0.70298   0.59937   1.000
    O422    O    0.29752   0.65908   0.60714   1.000
    O423    O    0.14333   0.79631   0.59959   1.000
    O424    O    0.20162   0.84045   0.60733   1.000
    O425    O    0.70320   0.35604   0.59974   1.000
    O426    O    0.65919   0.29765   0.60732   1.000
    O427    O    0.61342   0.24342   0.61348   1.000
    O428    O    0.24325   0.61335   0.61338   1.000
    O429    O    0.25573   0.88640   0.61358   1.000
    O430    O    0.88651   0.25642   0.61348   1.000
    O431    O    0.29593   0.40013   0.64333   1.000
    O432    O    0.40055   0.29538   0.64347   1.000
    O433    O    0.09945   0.20361   0.64351   1.000
    O434    O    0.20420   0.09899   0.64354   1.000
    O435    O    0.80637   0.08423   0.64165   1.000
    O436    O    0.41594   0.69279   0.64178   1.000
    O437    O    0.08349   0.80643   0.64226   1.000
    O438    O    0.69315   0.41588   0.64257   1.000
    O439    O    0.29745   0.60688   0.65945   1.000
    O440    O    0.89289   0.20235   0.65947   1.000
    O441    O    0.60699   0.29755   0.65980   1.000
    O442    O    0.20169   0.89282   0.65987   1.000
    O443    O    0.81841   0.03153   0.68177   1.000
    O444    O    0.85842   0.08428   0.69380   1.000
    O445    O    0.46877   0.68056   0.68185   1.000
    O446    O    0.41586   0.64085   0.69384   1.000
    O447    O    0.03076   0.81860   0.68259   1.000
    O448    O    0.08356   0.85855   0.69455   1.000
    O449    O    0.68104   0.46861   0.68304   1.000
    O450    O    0.64119   0.41577   0.69482   1.000
    O451    O    0.34030   0.39253   0.70168   1.000
    O452    O    0.27821   0.45571   0.71578   1.000
    O453    O    0.39272   0.34004   0.70174   1.000
    O454    O    0.45578   0.27805   0.71597   1.000
    O455    O    0.10729   0.15947   0.70183   1.000
    O456    O    0.04418   0.22158   0.71599   1.000
    O457    O    0.15978   0.10705   0.70184   1.000
    O458    O    0.22174   0.04397   0.71603   1.000
    O459    O    0.35583   0.59884   0.70374   1.000
    O460    O    0.28346   0.54403   0.72132   1.000
    O461    O    0.90075   0.14413   0.70376   1.000
    O462    O    0.95585   0.21639   0.72146   1.000
    O463    O    0.59904   0.35582   0.70447   1.000
    O464    O    0.54405   0.28352   0.72170   1.000
    O465    O    0.14347   0.90080   0.70442   1.000
    O466    O    0.21604   0.95578   0.72177   1.000
    O467    O    0.38668   0.11328   0.74309   1.000
    O468    O    0.11332   0.38674   0.74307   1.000
    O469    O    0.40770   0.59265   0.74067   1.000
    O470    O    0.90676   0.09243   0.74074   1.000
    O471    O    0.09173   0.90691   0.74156   1.000
    O472    O    0.59293   0.40756   0.74179   1.000
    O473    O    0.38642   0.38641   0.75583   1.000
    O474    O    0.11361   0.11356   0.75597   1.000
    O475    O    0.59371   0.09156   0.75919   1.000
    O476    O    0.09137   0.59399   0.75952   1.000
    O477    O    0.40803   0.90593   0.75986   1.000
    O478    O    0.90590   0.40821   0.76047   1.000
    O479    O    0.21578   0.54433   0.77841   1.000
    O480    O    0.22124   0.45604   0.78335   1.000
    O481    O    0.95567   0.28395   0.77878   1.000
    O482    O    0.04415   0.27891   0.78353   1.000
    O483    O    0.54421   0.21591   0.77850   1.000
    O484    O    0.45581   0.22129   0.78358   1.000
    O485    O    0.28380   0.95563   0.77874   1.000
    O486    O    0.27875   0.04405   0.78364   1.000
    O487    O    0.15934   0.39317   0.79722   1.000
    O488    O    0.10711   0.34097   0.79727   1.000
    O489    O    0.39289   0.15937   0.79736   1.000
    O490    O    0.34076   0.10706   0.79739   1.000
    O491    O    0.59958   0.14350   0.79620   1.000
    O492    O    0.64213   0.08347   0.80607   1.000
    O493    O    0.14331   0.59981   0.79639   1.000
    O494    O    0.08335   0.64254   0.80645   1.000
    O495    O    0.35607   0.90021   0.79670   1.000
    O496    O    0.41606   0.85754   0.80657   1.000
    O497    O    0.90015   0.35625   0.79706   1.000
    O498    O    0.85739   0.41616   0.80733   1.000
    O499    O    0.60727   0.20198   0.84053   1.000
    O500    O    0.20178   0.60745   0.84059   1.000
    O501    O    0.29757   0.89267   0.84085   1.000
    O502    O    0.89258   0.29777   0.84095   1.000
    O503    O    0.68234   0.03056   0.81803   1.000
    O504    O    0.46892   0.81723   0.81851   1.000
    O505    O    0.03052   0.68293   0.81858   1.000
    O506    O    0.81699   0.46895   0.81962   1.000
    O507    O    0.20365   0.40114   0.85558   1.000
    O508    O    0.09942   0.29698   0.85568   1.000
    O509    O    0.40062   0.20375   0.85582   1.000
    O510    O    0.29659   0.09938   0.85585   1.000
    O511    O    0.69423   0.08348   0.85816   1.000
    O512    O    0.41600   0.80550   0.85849   1.000
    O513    O    0.08344   0.69479   0.85858   1.000
    O514    O    0.80519   0.41601   0.85935   1.000
    O515    O    0.61347   0.25631   0.88656   1.000
    O516    O    0.65962   0.20199   0.89286   1.000
    O517    O    0.25607   0.61360   0.88655   1.000
    O518    O    0.20186   0.65992   0.89295   1.000
    O519    O    0.24323   0.88659   0.88675   1.000
    O520    O    0.29751   0.84039   0.89303   1.000
    O521    O    0.88649   0.24346   0.88667   1.000
    O522    O    0.84016   0.29763   0.89322   1.000
    O523    O    0.70403   0.14352   0.90063   1.000
    O524    O    0.74110   0.09159   0.90656   1.000
    O525    O    0.35595   0.79589   0.90080   1.000
    O526    O    0.40784   0.75873   0.90675   1.000
    O527    O    0.14349   0.70453   0.90089   1.000
    O528    O    0.09166   0.74178   0.90699   1.000
    O529    O    0.79552   0.35596   0.90135   1.000
    O530    O    0.75825   0.40775   0.90763   1.000
    O531    O    0.24062   0.40728   0.90746   1.000
    O532    O    0.19386   0.35901   0.91560   1.000
    O533    O    0.09355   0.26028   0.90760   1.000
    O534    O    0.14187   0.30705   0.91564   1.000
    O535    O    0.25973   0.09353   0.90777   1.000
    O536    O    0.30641   0.14193   0.91581   1.000
    O537    O    0.40654   0.24078   0.90778   1.000
    O538    O    0.35830   0.19398   0.91582   1.000
    O539    O    0.18197   0.31919   0.96846   1.000
loop_
    _geom_bond_atom_site_label_1
    _geom_bond_atom_site_label_2
    _geom_bond_distance
    _geom_bond_site_symmetry_2
    _ccdc_geom_bond_type
    C78    O252      0.54246  1_554   S
    C169   O252      0.54246      .   S
    C5     O253      1.00329      .   S
    C201   O253      1.00329      .   S
    C5     O254      1.00630      .   S
    C202   O254      1.00630      .   S
    C5     O255      1.00618  1_554   S
    C189   O255      1.00618      .   S
    C5     O256      1.00537  1_554   S
    C190   O256      1.00537      .   S
    C11    O257      1.00593      .   S
    C213   O257      1.00593      .   S
    C11    O258      1.00599      .   S
    C214   O258      1.00599      .   S
    C11    O259      1.00594  1_554   S
    C225   O259      1.00594      .   S
    C11    O260      1.00517  1_554   S
    C226   O260      1.00517      .   S
    C141   O261      0.69643      .   S
    C124   O261      0.69643      .   S
    C141   O262      0.69637      .   S
    C88    O262      0.69637      .   S
    C141   O263      0.54321      .   S
    C64    O263      0.54321  1_556   S
    C145   O264      0.69638      .   S
    C126   O264      0.69638      .   S
    C145   O265      0.69634      .   S
    C90    O265      0.69634      .   S
    C145   O266      0.54326      .   S
    C66    O266      0.54326  1_556   S
    C34    O267      0.54585      .   S
    C106   O267      0.54585      .   S
    C46    O268      0.54601      .   S
    C118   O268      0.54601      .   S
    C33    O269      0.54608      .   S
    C105   O269      0.54608      .   S
    C45    O270      0.54605      .   S
    C117   O270      0.54605      .   S
    C52    O271      0.54603      .   S
    C124   O271      0.54603      .   S
    C16    O272      0.54604      .   S
    C88    O272      0.54604      .   S
    C54    O273      0.54604      .   S
    C126   O273      0.54604      .   S
    C18    O274      0.54602      .   S
    C90    O274      0.54602      .   S
    C201   O275      0.66925      .   S
    C105   O275      0.66925      .   S
    C201   O276      0.69764      .   S
    C174   O276      0.69764      .   S
    C202   O277      0.66805      .   S
    C106   O277      0.66805      .   S
    C202   O278      0.69596      .   S
    C176   O278      0.69596      .   S
    C213   O279      0.66817      .   S
    C117   O279      0.66817      .   S
    C213   O280      0.69616      .   S
    C156   O280      0.69616      .   S
    C214   O281      0.66816      .   S
    C118   O281      0.66816      .   S
    C214   O282      0.69582      .   S
    C158   O282      0.69582      .   S
    C240   O283      0.62258      .   S
    C156   O283      0.62258      .   S
    C249   O284      0.62243      .   S
    C174   O284      0.62243      .   S
    C250   O285      0.62261      .   S
    C176   O285      0.62261      .   S
    C241   O286      0.62261      .   S
    C158   O286      0.62261      .   S
    C124   O287      0.66816      .   S
    C220   O287      0.66816      .   S
    C88    O288      0.66819      .   S
    C184   O288      0.66819      .   S
    C126   O289      0.66816      .   S
    C222   O289      0.66816      .   S
    C90    O290      0.66791      .   S
    C186   O290      0.66791      .   S
    C106   O291      0.69667      .   S
    C177   O291      0.69667      .   S
    C118   O292      0.69636      .   S
    C159   O292      0.69636      .   S
    C117   O293      0.69637      .   S
    C157   O293      0.69637      .   S
    C105   O294      0.69637      .   S
    C175   O294      0.69637      .   S
    C176   O295      0.69603      .   S
    C205   O295      0.69603      .   S
    C156   O296      0.69614      .   S
    C192   O296      0.69614      .   S
    C174   O297      0.69642      .   S
    C204   O297      0.69642      .   S
    C158   O298      0.69583      .   S
    C193   O298      0.69583      .   S
    C177   O299      0.54321      .   S
    C82    O299      0.54321      .   S
    C177   O300      0.69643      .   S
    C109   O300      0.69643      .   S
    C157   O301      0.54322      .   S
    C72    O301      0.54322      .   S
    C157   O302      0.69635      .   S
    C96    O302      0.69635      .   S
    C159   O303      0.53682      .   S
    C73    O303      0.53682  1_455   S
    C159   O304      0.69637      .   S
    C97    O304      0.69637      .   S
    C175   O305      0.53496      .   S
    C81    O305      0.53496  1_545   S
    C175   O306      0.69641      .   S
    C108   O306      0.69641      .   S
    C220   O307      0.69617      .   S
    C140   O307      0.69617      .   S
    C220   O308      1.00656      .   S
    C7     O308      1.00656  1_455   S
    C184   O309      0.69613      .   S
    C140   O309      0.69613      .   S
    C184   O310      1.00618      .   S
    C2     O310      1.00618      .   S
    C186   O311      0.69623      .   S
    C144   O311      0.69623      .   S
    C186   O312      1.00628      .   S
    C3     O312      1.00628  1_545   S
    C222   O313      0.69604      .   S
    C144   O313      0.69604      .   S
    C222   O314      1.00659      .   S
    C6     O314      1.00659      .   S
    C205   O315      0.66823      .   S
    C109   O315      0.66823      .   S
    C205   O316      1.00685      .   S
    C7     O316      1.00685      .   S
    C192   O317      0.66824      .   S
    C96    O317      0.66824      .   S
    C192   O318      1.00623      .   S
    C3     O318      1.00623      .   S
    C193   O319      0.66822      .   S
    C97    O319      0.66822      .   S
    C193   O320      1.00601      .   S
    C2     O320      1.00601      .   S
    C204   O321      0.66822      .   S
    C108   O321      0.66822      .   S
    C204   O322      1.00589      .   S
    C6     O322      1.00589      .   S
    C233   O323      0.62259      .   S
    C142   O323      0.62259      .   S
    C235   O324      0.62268      .   S
    C146   O324      0.62268      .   S
    C109   O325      0.54579      .   S
    C37    O325      0.54579      .   S
    C96    O326      0.54605      .   S
    C24    O326      0.54605      .   S
    C97    O327      0.54605      .   S
    C25    O327      0.54605      .   S
    C108   O328      0.54602      .   S
    C36    O328      0.54602      .   S
    C140   O329      0.62256      .   S
    C232   O329      0.62256      .   S
    C144   O330      0.62244      .   S
    C234   O330      0.62244      .   S
    C39    O331      0.54603      .   S
    C111   O331      0.54603      .   S
    C27    O332      0.54598      .   S
    C99    O332      0.54598      .   S
    C38    O333      0.54600      .   S
    C110   O333      0.54600      .   S
    C26    O334      0.54574      .   S
    C98    O334      0.54574      .   S
    C7     O335      1.00591      .   S
    C206   O335      1.00591      .   S
    C7     O336      1.00592  1_455   S
    C223   O336      1.00592      .   S
    C3     O337      1.00595      .   S
    C195   O337      1.00595      .   S
    C3     O338      1.00561  1_545   S
    C185   O338      1.00561      .   S
    C6     O339      1.00612      .   S
    C207   O339      1.00612      .   S
    C6     O340      1.00570      .   S
    C221   O340      1.00570      .   S
    C2     O341      1.00574      .   S
    C194   O341      1.00574      .   S
    C2     O342      1.00626      .   S
    C187   O342      1.00626      .   S
    C142   O343      0.69585      .   S
    C223   O343      0.69585      .   S
    C142   O344      0.69584      .   S
    C185   O344      0.69584      .   S
    C146   O345      0.69590      .   S
    C221   O345      0.69590      .   S
    C146   O346      0.69588      .   S
    C187   O346      0.69588      .   S
    C111   O347      0.66813      .   S
    C207   O347      0.66813      .   S
    C111   O348      0.69638      .   S
    C173   O348      0.69638      .   S
    C99    O349      0.66816      .   S
    C195   O349      0.66816      .   S
    C99    O350      0.69639      .   S
    C163   O350      0.69639      .   S
    C110   O351      0.66821      .   S
    C206   O351      0.66821      .   S
    C110   O352      0.69637      .   S
    C179   O352      0.69637      .   S
    C98    O353      0.66826      .   S
    C194   O353      0.66826      .   S
    C98    O354      0.69651      .   S
    C161   O354      0.69651      .   S
    C195   O355      0.69590      .   S
    C162   O355      0.69590      .   S
    C207   O356      0.69590      .   S
    C172   O356      0.69590      .   S
    C206   O357      0.69593      .   S
    C178   O357      0.69593      .   S
    C194   O358      0.69610      .   S
    C160   O358      0.69610      .   S
    C80    O359      0.54322      .   S
    C173   O359      0.54322      .   S
    C75    O360      0.53788  1_455   S
    C163   O360      0.53788      .   S
    C83    O361      0.54320      .   S
    C179   O361      0.54320      .   S
    C74    O362      0.54322      .   S
    C161   O362      0.54322      .   S
    C223   O363      0.66819      .   S
    C127   O363      0.66819      .   S
    C185   O364      0.66815      .   S
    C89    O364      0.66815      .   S
    C221   O365      0.66813      .   S
    C125   O365      0.66813      .   S
    C187   O366      0.66814      .   S
    C91    O366      0.66814      .   S
    C173   O367      0.69634      .   S
    C104   O367      0.69634      .   S
    C163   O368      0.69641      .   S
    C116   O368      0.69641      .   S
    C179   O369      0.69636      .   S
    C107   O369      0.69636      .   S
    C161   O370      0.69637      .   S
    C119   O370      0.69637      .   S
    C162   O371      0.62266      .   S
    C243   O371      0.62266      .   S
    C162   O372      0.69595      .   S
    C212   O372      0.69595      .   S
    C172   O373      0.62255      .   S
    C248   O373      0.62255      .   S
    C172   O374      0.69599      .   S
    C200   O374      0.69599      .   S
    C178   O375      0.62253      .   S
    C251   O375      0.62253      .   S
    C178   O376      0.69597      .   S
    C203   O376      0.69597      .   S
    C160   O377      0.62242      .   S
    C242   O377      0.62242      .   S
    C160   O378      0.69583      .   S
    C215   O378      0.69583      .   S
    C104   O379      0.66826      .   S
    C200   O379      0.66826      .   S
    C104   O380      0.54603      .   S
    C32    O380      0.54603      .   S
    C116   O381      0.66818      .   S
    C212   O381      0.66818      .   S
    C116   O382      0.54601      .   S
    C44    O382      0.54601      .   S
    C119   O383      0.66810      .   S
    C215   O383      0.66810      .   S
    C119   O384      0.54605      .   S
    C47    O384      0.54605      .   S
    C107   O385      0.66819      .   S
    C203   O385      0.66819      .   S
    C107   O386      0.54575      .   S
    C35    O386      0.54575      .   S
    C127   O387      0.54602      .   S
    C55    O387      0.54602      .   S
    C127   O388      0.69639      .   S
    C143   O388      0.69639      .   S
    C89    O389      0.54602      .   S
    C17    O389      0.54602      .   S
    C89    O390      0.69639      .   S
    C143   O390      0.69639      .   S
    C125   O391      0.54601      .   S
    C53    O391      0.54601      .   S
    C125   O392      0.69642      .   S
    C147   O392      0.69642      .   S
    C91    O393      0.54603      .   S
    C19    O393      0.54603      .   S
    C91    O394      0.69642      .   S
    C147   O394      0.69642      .   S
    C212   O395      1.00591      .   S
    C10    O395      1.00591      .   S
    C200   O396      1.00624      .   S
    C4     O396      1.00624      .   S
    C215   O397      1.00691      .   S
    C10    O397      1.00691      .   S
    C203   O398      1.00597      .   S
    C4     O398      1.00597      .   S
    C143   O399      0.54326      .   S
    C65    O399      0.54326      .   S
    C147   O400      0.54320      .   S
    C67    O400      0.54320      .   S
    C77    O401      0.54319      .   S
    C167   O401      0.54319      .   S
    C79    O402      0.54319      .   S
    C171   O402      0.54319      .   S
    C10    O403      1.00631      .   S
    C227   O403      1.00631      .   S
    C10    O404      1.00578      .   S
    C224   O404      1.00578      .   S
    C4     O405      1.00632      .   S
    C191   O405      1.00632      .   S
    C4     O406      1.00617      .   S
    C188   O406      1.00617      .   S
    C167   O407      0.69622      .   S
    C115   O407      0.69622      .   S
    C167   O408      0.69641      .   S
    C101   O408      0.69641      .   S
    C171   O409      0.69642      .   S
    C103   O409      0.69642      .   S
    C171   O410      0.69643      .   S
    C113   O410      0.69643      .   S
    C59    O411      0.54601      .   S
    C131   O411      0.54601      .   S
    C23    O412      0.54625      .   S
    C95    O412      0.54625      .   S
    C20    O413      0.54600      .   S
    C92    O413      0.54600      .   S
    C56    O414      0.54603      .   S
    C128   O414      0.54603      .   S
    C43    O415      0.54585      .   S
    C115   O415      0.54585      .   S
    C31    O416      0.54600      .   S
    C103   O416      0.54600      .   S
    C41    O417      0.54599      .   S
    C113   O417      0.54599      .   S
    C29    O418      0.54600      .   S
    C101   O418      0.54600      .   S
    C227   O419      0.66820      .   S
    C131   O419      0.66820      .   S
    C227   O420      0.69591      .   S
    C136   O420      0.69591      .   S
    C191   O421      0.66822      .   S
    C95    O421      0.66822      .   S
    C191   O422      0.69616      .   S
    C154   O422      0.69616      .   S
    C188   O423      0.66820      .   S
    C92    O423      0.66820      .   S
    C188   O424      0.69592      .   S
    C148   O424      0.69592      .   S
    C224   O425      0.66827      .   S
    C128   O425      0.66827      .   S
    C224   O426      0.69597      .   S
    C138   O426      0.69597      .   S
    C231   O427      0.62254      .   S
    C138   O427      0.62254      .   S
    C239   O428      0.62268      .   S
    C154   O428      0.62268      .   S
    C236   O429      0.62267      .   S
    C148   O429      0.62267      .   S
    C230   O430      0.62257      .   S
    C136   O430      0.62257      .   S
    C115   O431      0.66856      .   S
    C211   O431      0.66856      .   S
    C101   O432      0.66816      .   S
    C197   O432      0.66816      .   S
    C103   O433      0.66821      .   S
    C199   O433      0.66821      .   S
    C113   O434      0.66818      .   S
    C209   O434      0.66818      .   S
    C131   O435      0.69636      .   S
    C137   O435      0.69636      .   S
    C95    O436      0.69637      .   S
    C155   O436      0.69637      .   S
    C92    O437      0.69638      .   S
    C149   O437      0.69638      .   S
    C128   O438      0.69636      .   S
    C139   O438      0.69636      .   S
    C154   O439      0.69618      .   S
    C218   O439      0.69618      .   S
    C136   O440      0.69592      .   S
    C182   O440      0.69592      .   S
    C138   O441      0.69586      .   S
    C183   O441      0.69586      .   S
    C148   O442      0.69598      .   S
    C219   O442      0.69598      .   S
    C137   O443      0.54321      .   S
    C62    O443      0.54321      .   S
    C137   O444      0.69639      .   S
    C86    O444      0.69639      .   S
    C155   O445      0.54321      .   S
    C71    O445      0.54321      .   S
    C155   O446      0.69635      .   S
    C122   O446      0.69635      .   S
    C149   O447      0.54321      .   S
    C68    O447      0.54321  1_655   S
    C149   O448      0.69639      .   S
    C123   O448      0.69639      .   S
    C139   O449      0.54322      .   S
    C63    O449      0.54322      .   S
    C139   O450      0.69637      .   S
    C87    O450      0.69637      .   S
    C211   O451      0.69580      .   S
    C166   O451      0.69580      .   S
    C211   O452      1.00615      .   S
    C8     O452      1.00615      .   S
    C197   O453      0.69579      .   S
    C166   O453      0.69579      .   S
    C197   O454      1.00574      .   S
    C0     O454      1.00574      .   S
    C199   O455      0.69581      .   S
    C170   O455      0.69581      .   S
    C199   O456      1.00587      .   S
    C1     O456      1.00587  1_655   S
    C209   O457      0.69578      .   S
    C170   O457      0.69578      .   S
    C209   O458      1.00604      .   S
    C9     O458      1.00604  1_565   S
    C218   O459      0.66815      .   S
    C122   O459      0.66815      .   S
    C218   O460      1.00559      .   S
    C8     O460      1.00559      .   S
    C182   O461      0.66820      .   S
    C86    O461      0.66820      .   S
    C182   O462      1.00592      .   S
    C1     O462      1.00592      .   S
    C183   O463      0.66814      .   S
    C87    O463      0.66814      .   S
    C183   O464      1.00566      .   S
    C0     O464      1.00566      .   S
    C219   O465      0.66812      .   S
    C123   O465      0.66812      .   S
    C219   O466      1.00560      .   S
    C9     O466      1.00560      .   S
    C246   O467      0.62241      .   S
    C168   O467      0.62241      .   S
    C244   O468      0.62248      .   S
    C164   O468      0.62248      .   S
    C122   O469      0.54602      .   S
    C50    O469      0.54602      .   S
    C86    O470      0.54602      .   S
    C14    O470      0.54602      .   S
    C123   O471      0.54549      .   S
    C51    O471      0.54549      .   S
    C87    O472      0.54601      .   S
    C15    O472      0.54601      .   S
    C166   O473      0.62258      .   S
    C245   O473      0.62258      .   S
    C170   O474      0.62266      .   S
    C247   O474      0.62266      .   S
    C12    O475      0.54603      .   S
    C84    O475      0.54603      .   S
    C49    O476      0.54597      .   S
    C121   O476      0.54597      .   S
    C48    O477      0.54603      .   S
    C120   O477      0.54603      .   S
    C13    O478      0.54608      .   S
    C85    O478      0.54608      .   S
    C8     O479      1.00621      .   S
    C217   O479      1.00621      .   S
    C8     O480      1.00519      .   S
    C208   O480      1.00519      .   S
    C1     O481      1.00612      .   S
    C181   O481      1.00612      .   S
    C1     O482      1.00599  1_655   S
    C196   O482      1.00599      .   S
    C0     O483      1.00602      .   S
    C180   O483      1.00602      .   S
    C0     O484      1.00575      .   S
    C198   O484      1.00575      .   S
    C9     O485      1.00633      .   S
    C216   O485      1.00633      .   S
    C9     O486      1.00587  1_565   S
    C210   O486      1.00587      .   S
    C164   O487      0.69568      .   S
    C208   O487      0.69568      .   S
    C164   O488      0.69574      .   S
    C196   O488      0.69574      .   S
    C168   O489      0.69574      .   S
    C198   O489      0.69574      .   S
    C168   O490      0.69608      .   S
    C210   O490      0.69608      .   S
    C84    O491      0.66823      .   S
    C180   O491      0.66823      .   S
    C84    O492      0.69640      .   S
    C133   O492      0.69640      .   S
    C121   O493      0.66823      .   S
    C217   O493      0.66823      .   S
    C121   O494      0.69639      .   S
    C153   O494      0.69639      .   S
    C120   O495      0.66824      .   S
    C216   O495      0.66824      .   S
    C120   O496      0.69635      .   S
    C151   O496      0.69635      .   S
    C85    O497      0.66819      .   S
    C181   O497      0.66819      .   S
    C85    O498      0.69639      .   S
    C135   O498      0.69639      .   S
    C180   O499      0.69593      .   S
    C132   O499      0.69593      .   S
    C217   O500      0.69588      .   S
    C152   O500      0.69588      .   S
    C216   O501      0.69606      .   S
    C150   O501      0.69606      .   S
    C181   O502      0.69611      .   S
    C134   O502      0.69611      .   S
    C60    O503      0.54325  1_565   S
    C133   O503      0.54325      .   S
    C69    O504      0.54323      .   S
    C151   O504      0.54323      .   S
    C70    O505      0.54324  1_655   S
    C153   O505      0.54324      .   S
    C61    O506      0.54324      .   S
    C135   O506      0.54324      .   S
    C208   O507      0.66886      .   S
    C112   O507      0.66886      .   S
    C196   O508      0.66877      .   S
    C100   O508      0.66877      .   S
    C198   O509      0.66878      .   S
    C102   O509      0.66878      .   S
    C210   O510      0.66822      .   S
    C114   O510      0.66822      .   S
    C133   O511      0.69637      .   S
    C129   O511      0.69637      .   S
    C151   O512      0.69639      .   S
    C93    O512      0.69639      .   S
    C153   O513      0.69636      .   S
    C94    O513      0.69636      .   S
    C135   O514      0.69637      .   S
    C130   O514      0.69637      .   S
    C132   O515      0.62234      .   S
    C228   O515      0.62234      .   S
    C132   O516      0.69595      .   S
    C225   O516      0.69595      .   S
    C152   O517      0.62256      .   S
    C238   O517      0.62256      .   S
    C152   O518      0.69585      .   S
    C190   O518      0.69585      .   S
    C150   O519      0.62246      .   S
    C237   O519      0.62246      .   S
    C150   O520      0.69610      .   S
    C189   O520      0.69610      .   S
    C134   O521      0.62254      .   S
    C229   O521      0.62254      .   S
    C134   O522      0.69592      .   S
    C226   O522      0.69592      .   S
    C129   O523      0.66821      .   S
    C225   O523      0.66821      .   S
    C129   O524      0.54604      .   S
    C57    O524      0.54604      .   S
    C93    O525      0.66821      .   S
    C189   O525      0.66821      .   S
    C93    O526      0.54602      .   S
    C21    O526      0.54602      .   S
    C94    O527      0.66817      .   S
    C190   O527      0.66817      .   S
    C94    O528      0.54601      .   S
    C22    O528      0.54601      .   S
    C130   O529      0.66816      .   S
    C226   O529      0.66816      .   S
    C130   O530      0.54602      .   S
    C58    O530      0.54602      .   S
    C112   O531      0.54603      .   S
    C40    O531      0.54603      .   S
    C112   O532      0.69635      .   S
    C165   O532      0.69635      .   S
    C100   O533      0.54603      .   S
    C28    O533      0.54603      .   S
    C100   O534      0.69639      .   S
    C165   O534      0.69639      .   S
    C114   O535      0.54604      .   S
    C42    O535      0.54604      .   S
    C114   O536      0.69602      .   S
    C169   O536      0.69602      .   S
    C102   O537      0.54606      .   S
    C30    O537      0.54606      .   S
    C102   O538      0.69606      .   S
    C169   O538      0.69606      .   S
    C165   O539      0.54327      .   S
    C76    O539      0.54327      .   S
