# CIF file generated by openbabel 2.4.90, see http://openbabel.sf.net
data_I
_chemical_name_common ''
_cell_length_a 11.804
_cell_length_b 11.438
_cell_length_c 27.327
_cell_angle_alpha 89.971
_cell_angle_beta 90.057
_cell_angle_gamma 82.266
_space_group_name_H-M_alt 'P 1'
_space_group_name_Hall 'P 1'
loop_
    _symmetry_equiv_pos_as_xyz
    x,y,z
loop_
    _atom_site_label
    _atom_site_type_symbol
    _atom_site_fract_x
    _atom_site_fract_y
    _atom_site_fract_z
    _atom_site_occupancy
    Zn0     Zn   0.74956   0.74974   0.66217   1.000
    Zn1     Zn   0.25039   0.25028   0.33783   1.000
    Zn2     Zn   0.24978   0.24994   0.84319   1.000
    Zn3     Zn   0.75016   0.75008   0.15681   1.000
    Pd4     Pd   0.24994   0.74994   0.90710   1.000
    Pd5     Pd   0.75033   0.24980   0.40710   1.000
    Pd6     Pd   0.24966   0.75020   0.59286   1.000
    Pd7     Pd   0.75001   0.25007   0.09290   1.000
