# CIF file generated by openbabel 2.4.90, see http://openbabel.sf.net
data_I
_chemical_name_common ''
_cell_length_a 11.804
_cell_length_b 11.438
_cell_length_c 27.327
_cell_angle_alpha 89.971
_cell_angle_beta 90.057
_cell_angle_gamma 82.266
_space_group_name_H-M_alt 'P 1'
_space_group_name_Hall 'P 1'
loop_
    _symmetry_equiv_pos_as_xyz
    x,y,z
loop_
    _atom_site_label
    _atom_site_type_symbol
    _atom_site_fract_x
    _atom_site_fract_y
    _atom_site_fract_z
    _atom_site_occupancy
    N0      N    0.01022   0.78891   0.79392   1.000
    N1      N    0.48875   0.70550   0.02154   1.000
    N2      N    0.48908   0.71097   0.79383   1.000
    N3      N    0.01165   0.79451   0.02164   1.000
    N4      N    0.51087   0.28905   0.20610   1.000
    N5      N    0.98691   0.20549   0.97836   1.000
    N6      N    0.79414   0.00784   0.29218   1.000
    N7      N    0.51120   0.29451   0.97846   1.000
    N8      N    0.70669   0.49214   0.29222   1.000
    N9      N    0.30077   0.50993   0.47665   1.000
    N10     N    0.29327   0.50788   0.70778   1.000
    N11     N    0.80057   0.00856   0.52324   1.000
    N12     N    0.69921   0.49008   0.52334   1.000
    N13     N    0.20582   0.99217   0.70781   1.000
    N14     N    0.19942   0.98964   0.47674   1.000
    N15     N    0.98973   0.21111   0.20607   1.000
    Zr16    Zr   0.24994   0.74994   0.90710   1.000
    O17     O    0.17466   0.76186   0.87209   1.000
    O18     O    0.32503   0.73800   0.87207   1.000
    O19     O    0.17512   0.76371   0.94258   1.000
    O20     O    0.32494   0.73621   0.94254   1.000
    Zr21    Zr   0.75033   0.24980   0.40710   1.000
    O22     O    0.73679   0.32613   0.37164   1.000
    O23     O    0.76395   0.17361   0.37162   1.000
    O24     O    0.76604   0.17384   0.44301   1.000
    O25     O    0.73433   0.32549   0.44303   1.000
    Zr26    Zr   0.24966   0.75020   0.59286   1.000
    O27     O    0.23395   0.82572   0.55696   1.000
    O28     O    0.26565   0.67452   0.55694   1.000
    O29     O    0.23604   0.82640   0.62835   1.000
    O30     O    0.26319   0.67389   0.62834   1.000
    Zr31    Zr   0.75001   0.25007   0.09290   1.000
    O32     O    0.67501   0.26379   0.05746   1.000
    O33     O    0.82449   0.23630   0.05742   1.000
    O34     O    0.82529   0.23815   0.12789   1.000
    O35     O    0.67492   0.26201   0.12791   1.000
    Zr36    Zr   0.24978   0.24994   0.84319   1.000
    O37     O    0.24179   0.16861   0.80346   1.000
    O38     O    0.33088   0.25851   0.88333   1.000
    O39     O    0.16832   0.24142   0.88330   1.000
    O40     O    0.25764   0.33133   0.80345   1.000
    Zr41    Zr   0.25039   0.25028   0.33783   1.000
    O42     O    0.26177   0.33127   0.37896   1.000
    O43     O    0.16873   0.24457   0.29911   1.000
    O44     O    0.23883   0.16912   0.37900   1.000
    O45     O    0.33205   0.25583   0.29914   1.000
    Zr46    Zr   0.75016   0.75008   0.15681   1.000
    O47     O    0.74231   0.66869   0.19655   1.000
    O48     O    0.75816   0.83140   0.19654   1.000
    O49     O    0.83127   0.75860   0.11670   1.000
    O50     O    0.66907   0.74151   0.11667   1.000
    Zr51    Zr   0.74956   0.74974   0.66217   1.000
    O52     O    0.83122   0.75544   0.70089   1.000
    O53     O    0.73819   0.66875   0.62104   1.000
    O54     O    0.66790   0.74419   0.70084   1.000
    O55     O    0.76113   0.83044   0.62099   1.000
loop_
    _geom_bond_atom_site_label_1
    _geom_bond_atom_site_label_2
    _geom_bond_distance
    _geom_bond_site_symmetry_2
    _ccdc_geom_bond_type
    Zr16   O17       1.29959      .   S
    N0     O17       2.87336      .   S
    Zr16   O18       1.30001      .   S
    N2     O18       2.87477      .   S
    Zr16   O19       1.30736      .   S
    N3     O19       2.88809  1_554   S
    Zr16   O20       1.30654      .   S
    N1     O20       2.88645  1_554   S
    Zr21   O22       1.29924      .   S
    N8     O22       2.87312      .   S
    Zr21   O23       1.29956      .   S
    N6     O23       2.87374      .   S
    Zr21   O24       1.30686      .   S
    N11    O24       2.88681      .   S
    Zr21   O25       1.30635      .   S
    N12    O25       2.88577      .   S
    Zr26   O27       1.30330      .   S
    N14    O27       2.87668      .   S
    Zr26   O28       1.30608      .   S
    N9     O28       2.88536      .   S
    Zr26   O29       1.29984      .   S
    N13    O29       2.87416      .   S
    Zr26   O30       1.29953      .   S
    N10    O30       2.87356      .   S
    Zr31   O32       1.30654      .   S
    N7     O32       2.88645  1_556   S
    Zr31   O33       1.30467      .   S
    N5     O33       2.88022  1_556   S
    Zr31   O34       1.29930      .   S
    N15    O34       2.87349      .   S
    Zr31   O35       1.29964      .   S
    N4     O35       2.87364      .   S
    Zr36   O37       1.44143      .   S
    N13    O37       3.36425  1_565   S
    Zr36   O38       1.46704      .   S
    N7     O38       3.41816      .   S
    Zr36   O39       1.47059      .   S
    N5     O39       3.42765  1_655   S
    Zr36   O40       1.44112      .   S
    N10    O40       3.36380      .   S
    Zr41   O42       1.47432      .   S
    N9     O42       3.43098      .   S
    Zr41   O43       1.43809      .   S
    N15    O43       3.35895  1_655   S
    Zr41   O44       1.47633      .   S
    N14    O44       3.43781  1_565   S
    Zr41   O45       1.43863      .   S
    N4     O45       3.36003      .   S
    Zr46   O47       1.44110      .   S
    N8     O47       3.36376      .   S
    Zr46   O48       1.44141      .   S
    N6     O48       3.36413  1_545   S
    Zr46   O49       1.46793      .   S
    N3     O49       3.41993  1_455   S
    Zr46   O50       1.46703      .   S
    N1     O50       3.41813      .   S
    Zr51   O52       1.43805      .   S
    N0     O52       3.35883  1_455   S
    Zr51   O53       1.47436      .   S
    N12    O53       3.43108      .   S
    Zr51   O54       1.43825      .   S
    N2     O54       3.35887      .   S
    Zr51   O55       1.47310      .   S
    N11    O55       3.42856  1_545   S
