# CIF file generated by openbabel 2.4.90, see http://openbabel.sf.net
data_I
_chemical_name_common ''
_cell_length_a 11.804
_cell_length_b 11.438
_cell_length_c 27.327
_cell_angle_alpha 89.971
_cell_angle_beta 90.057
_cell_angle_gamma 82.266
_space_group_name_H-M_alt 'P 1'
_space_group_name_Hall 'P 1'
loop_
    _symmetry_equiv_pos_as_xyz
    x,y,z
loop_
    _atom_site_label
    _atom_site_type_symbol
    _atom_site_fract_x
    _atom_site_fract_y
    _atom_site_fract_z
    _atom_site_occupancy
    Zr0     Zr   0.75016   0.75008   0.15681   1.000
    Zr1     Zr   0.74956   0.74974   0.66217   1.000
    Zr2     Zr   0.25039   0.25028   0.33783   1.000
    Zr3     Zr   0.24978   0.24994   0.84319   1.000
    Zr4     Zr   0.24994   0.74994   0.90710   1.000
    Zr5     Zr   0.75033   0.24980   0.40710   1.000
    Zr6     Zr   0.24966   0.75020   0.59286   1.000
    Zr7     Zr   0.75001   0.25007   0.09290   1.000
    N8      N    0.01022   0.78891   0.79392   1.000
    O9      O    0.09938   0.77379   0.83709   1.000
    O10     O    0.91287   0.76115   0.73962   1.000
    N11     N    0.48875   0.70550   0.02154   1.000
    O12     O    0.39994   0.72249   0.97798   1.000
    O13     O    0.58798   0.73294   0.07653   1.000
    N14     N    0.48908   0.71097   0.79383   1.000
    O15     O    0.40012   0.72607   0.83704   1.000
    O16     O    0.58624   0.73864   0.73952   1.000
    N17     N    0.01165   0.79451   0.02164   1.000
    O18     O    0.10029   0.77748   0.97805   1.000
    O19     O    0.91239   0.76712   0.07659   1.000
    N20     N    0.51087   0.28905   0.20610   1.000
    O21     O    0.59983   0.27395   0.16293   1.000
    O22     O    0.41372   0.26137   0.26045   1.000
    N23     N    0.98691   0.20549   0.97836   1.000
    O24     O    0.89897   0.22253   0.02195   1.000
    O25     O    0.08686   0.23290   0.92341   1.000
    N26     N    0.79414   0.00784   0.29218   1.000
    O27     O    0.77757   0.09742   0.33614   1.000
    O28     O    0.76616   0.91273   0.23628   1.000
    N29     N    0.51120   0.29451   0.97846   1.000
    O30     O    0.60001   0.27752   0.02202   1.000
    O31     O    0.41197   0.26707   0.92347   1.000
    N32     N    0.70669   0.49214   0.29222   1.000
    O33     O    0.72325   0.40245   0.33617   1.000
    O34     O    0.73445   0.58730   0.23628   1.000
    N35     N    0.30077   0.50993   0.47665   1.000
    O36     O    0.28165   0.59884   0.52102   1.000
    O37     O    0.27316   0.41225   0.42009   1.000
    N38     N    0.29327   0.50788   0.70778   1.000
    O39     O    0.27672   0.59757   0.66382   1.000
    O40     O    0.26550   0.41272   0.76372   1.000
    N41     N    0.80057   0.00856   0.52324   1.000
    O42     O    0.78176   0.09787   0.47892   1.000
    O43     O    0.77271   0.91114   0.57982   1.000
    N44     N    0.69921   0.49008   0.52334   1.000
    O45     O    0.71834   0.40117   0.47897   1.000
    O46     O    0.72681   0.58776   0.57991   1.000
    N47     N    0.20582   0.99217   0.70781   1.000
    O48     O    0.23380   0.08728   0.76372   1.000
    O49     O    0.22241   0.90259   0.66385   1.000
    N50     N    0.19942   0.98964   0.47674   1.000
    O51     O    0.21823   0.90124   0.52106   1.000
    O52     O    0.22727   0.08797   0.42018   1.000
    N53     N    0.98973   0.21111   0.20607   1.000
    O54     O    0.90057   0.22622   0.16289   1.000
    O55     O    0.08708   0.23886   0.26038   1.000
loop_
    _geom_bond_atom_site_label_1
    _geom_bond_atom_site_label_2
    _geom_bond_distance
    _geom_bond_site_symmetry_2
    _ccdc_geom_bond_type
    N8     O9        1.57393      .   S
    Zr4    O9        2.59918      .   S
    N8     O10       1.92841  1_455   S
    Zr1    O10       2.87610      .   S
    N11    O12       1.58004  1_554   S
    Zr4    O12       2.61308      .   S
    N11    O13       1.95561      .   S
    Zr0    O13       2.93406      .   S
    N14    O15       1.57492      .   S
    Zr4    O15       2.60003      .   S
    N14    O16       1.92841      .   S
    Zr1    O16       2.87650      .   S
    N17    O18       1.58085  1_554   S
    Zr4    O18       2.61472      .   S
    N17    O19       1.95650  1_455   S
    Zr0    O19       2.93586      .   S
    N20    O21       1.57416      .   S
    Zr7    O21       2.59927      .   S
    N20    O22       1.92919      .   S
    Zr2    O22       2.87727      .   S
    N23    O24       1.57570  1_556   S
    Zr7    O24       2.60934      .   S
    N23    O25       1.96150  1_655   S
    Zr3    O25       2.94119      .   S
    N26    O27       1.57442      .   S
    Zr5    O27       2.59912      .   S
    N26    O28       1.92972  1_545   S
    Zr0    O28       2.88283      .   S
    N29    O30       1.58004  1_556   S
    Zr7    O30       2.61308      .   S
    N29    O31       1.95562      .   S
    Zr3    O31       2.93409      .   S
    N32    O33       1.57413      .   S
    Zr5    O33       2.59849      .   S
    N32    O34       1.92968      .   S
    Zr0    O34       2.88220      .   S
    N35    O36       1.57950      .   S
    Zr6    O36       2.61216      .   S
    N35    O37       1.96026      .   S
    Zr2    O37       2.94864      .   S
    N38    O39       1.57428      .   S
    Zr6    O39       2.59906      .   S
    N38    O40       1.92970      .   S
    Zr3    O40       2.88225      .   S
    N41    O42       1.58015      .   S
    Zr5    O42       2.61373      .   S
    N41    O43       1.95903  1_545   S
    Zr1    O43       2.94619      .   S
    N44    O45       1.57964      .   S
    Zr5    O45       2.61270      .   S
    N44    O46       1.96032      .   S
    Zr1    O46       2.94871      .   S
    N47    O48       1.92983  1_565   S
    Zr3    O48       2.88287      .   S
    N47    O49       1.57455      .   S
    Zr6    O49       2.59968      .   S
    N50    O51       1.57363      .   S
    Zr6    O51       2.60659      .   S
    N50    O52       1.96497  1_565   S
    Zr2    O52       2.95266      .   S
    N53    O54       1.57436      .   S
    Zr7    O54       2.59860      .   S
    N53    O55       1.92849  1_655   S
    Zr2    O55       2.87618      .   S
