# CIF file generated by openbabel 2.4.90, see http://openbabel.sf.net
data_I
_chemical_name_common ''
_cell_length_a 9.0205
_cell_length_b 9.026
_cell_length_c 19.517
_cell_angle_alpha 89.999
_cell_angle_beta 89.997
_cell_angle_gamma 68.782
_space_group_name_H-M_alt 'P 1'
_space_group_name_Hall 'P 1'
loop_
    _symmetry_equiv_pos_as_xyz
    x,y,z
loop_
    _atom_site_label
    _atom_site_type_symbol
    _atom_site_fract_x
    _atom_site_fract_y
    _atom_site_fract_z
    _atom_site_occupancy
    P0      P    0.36993   0.66662   0.41968   1.000
    P1      P    0.51250   0.19207   0.31046   1.000
    P2      P    0.49137   0.79571   0.15927   1.000
    P3      P    0.12984   0.83307   0.91969   1.000
    P4      P    0.98737   0.30760   0.81044   1.000
    P5      P    0.00872   0.70414   0.65933   1.000
    P6      P    0.63013   0.33315   0.58311   1.000
    P7      P    0.48754   0.80766   0.69232   1.000
    P8      P    0.50850   0.20404   0.84352   1.000
    P9      P    0.87002   0.16664   0.08309   1.000
    P10     P    0.01254   0.69214   0.19234   1.000
    P11     P    0.99132   0.29566   0.34347   1.000
