# CIF file generated by openbabel 2.4.90, see http://openbabel.sf.net
data_I
_chemical_name_common ''
_cell_length_a 9.0205
_cell_length_b 9.026
_cell_length_c 19.517
_cell_angle_alpha 89.999
_cell_angle_beta 89.997
_cell_angle_gamma 68.782
_space_group_name_H-M_alt 'P 1'
_space_group_name_Hall 'P 1'
loop_
    _symmetry_equiv_pos_as_xyz
    x,y,z
loop_
    _atom_site_label
    _atom_site_type_symbol
    _atom_site_fract_x
    _atom_site_fract_y
    _atom_site_fract_z
    _atom_site_occupancy
    O0      O    0.34355   0.82736   0.38612   1.000
    O1      O    0.45810   0.05454   0.33072   1.000
    O2      O    0.62245   0.63255   0.15238   1.000
    O3      O    0.25716   0.58961   0.38888   1.000
    O4      O    0.63026   0.14101   0.25031   1.000
    O5      O    0.55418   0.93197   0.15866   1.000
    O6      O    0.36852   0.33895   0.28791   1.000
    O7      O    0.36640   0.82420   0.10328   1.000
    O8      O    0.54493   0.55684   0.40845   1.000
    O9      O    0.33308   0.69481   0.49632   1.000
    O10     O    0.59533   0.23117   0.37287   1.000
    O11     O    0.15621   0.67225   0.88621   1.000
    O12     O    0.04169   0.44519   0.83069   1.000
    O13     O    0.87768   0.86730   0.65243   1.000
    O14     O    0.24263   0.90997   0.88882   1.000
    O15     O    0.86969   0.35858   0.75027   1.000
    O16     O    0.94596   0.56786   0.65875   1.000
    O17     O    0.13140   0.16073   0.78791   1.000
    O18     O    0.13369   0.67562   0.60334   1.000
    O19     O    0.95485   0.94284   0.90845   1.000
    O20     O    0.16672   0.80504   0.00000   1.000
    O21     O    0.90453   0.26853   0.87285   1.000
    O22     O    0.65648   0.17241   0.61666   1.000
    O23     O    0.54201   0.94513   0.67206   1.000
    O24     O    0.37739   0.36718   0.85039   1.000
    O25     O    0.74294   0.41012   0.61389   1.000
    O26     O    0.36978   0.85873   0.75247   1.000
    O27     O    0.44573   0.06776   0.84416   1.000
    O28     O    0.63147   0.66073   0.71488   1.000
    O29     O    0.63347   0.17564   0.89950   1.000
    O30     O    0.45514   0.44295   0.59434   1.000
    O31     O    0.66695   0.30495   0.50645   1.000
    O32     O    0.40466   0.76864   0.62991   1.000
    O33     O    0.84360   0.32744   0.11660   1.000
    O34     O    0.95813   0.55464   0.17205   1.000
    O35     O    0.12240   0.13251   0.35036   1.000
    O36     O    0.75730   0.08962   0.11394   1.000
    O37     O    0.13029   0.64101   0.25248   1.000
    O38     O    0.05407   0.43195   0.34409   1.000
    O39     O    0.86857   0.83900   0.21493   1.000
    O40     O    0.86634   0.32414   0.39945   1.000
    O41     O    0.04502   0.05694   0.09432   1.000
    O42     O    0.83313   0.19475   0.00645   1.000
    O43     O    0.09535   0.73129   0.12994   1.000
