# CIF file generated by openbabel 2.4.90, see http://openbabel.sf.net
data_I
_chemical_name_common ''
_cell_length_a 9.0205
_cell_length_b 9.026
_cell_length_c 19.517
_cell_angle_alpha 89.999
_cell_angle_beta 89.997
_cell_angle_gamma 68.782
_space_group_name_H-M_alt 'P 1'
_space_group_name_Hall 'P 1'
loop_
    _symmetry_equiv_pos_as_xyz
    x,y,z
loop_
    _atom_site_label
    _atom_site_type_symbol
    _atom_site_fract_x
    _atom_site_fract_y
    _atom_site_fract_z
    _atom_site_occupancy
    N0      N    0.36993   0.66662   0.41968   1.000
    N1      N    0.87002   0.16664   0.08309   1.000
    N2      N    0.48754   0.80766   0.69232   1.000
    N3      N    0.63013   0.33315   0.58311   1.000
    N4      N    0.99132   0.29566   0.34347   1.000
    N5      N    0.12984   0.83307   0.91969   1.000
    N6      N    0.01254   0.69214   0.19234   1.000
    N7      N    0.49137   0.79571   0.15927   1.000
    N8      N    0.50850   0.20404   0.84352   1.000
    N9      N    0.98737   0.30760   0.81044   1.000
    N10     N    0.51250   0.19207   0.31046   1.000
    N11     N    0.00872   0.70414   0.65933   1.000
    Zr12    Zr   0.82929   0.39607   0.23570   1.000
    O13     O    0.83138   0.38087   0.18361   1.000
    O14     O    0.87433   0.46607   0.20440   1.000
    O15     O    0.74845   0.49528   0.19703   1.000
    O16     O    0.90093   0.34404   0.28036   1.000
    Zr17    Zr   0.66691   0.35631   0.41995   1.000
    O18     O    0.74170   0.34425   0.41226   1.000
    O19     O    0.62117   0.43151   0.41564   1.000
    O20     O    0.66692   0.33705   0.45239   1.000
    O21     O    0.64007   0.30939   0.40229   1.000
    Zr22    Zr   0.67066   0.10366   0.73574   1.000
    O23     O    0.59896   0.15567   0.78041   1.000
    O24     O    0.75158   0.00450   0.69707   1.000
    O25     O    0.66863   0.11891   0.68366   1.000
    O26     O    0.62570   0.03369   0.70444   1.000
    Zr27    Zr   0.17070   0.60372   0.76709   1.000
    O28     O    0.09909   0.65576   0.72243   1.000
    O29     O    0.25147   0.50448   0.80575   1.000
    O30     O    0.16853   0.61888   0.81918   1.000
    O31     O    0.12558   0.53373   0.79836   1.000
    Zr32    Zr   0.32927   0.89607   0.26704   1.000
    O33     O    0.40094   0.84406   0.22238   1.000
    O34     O    0.33135   0.88084   0.31912   1.000
    O35     O    0.37431   0.96603   0.29835   1.000
    O36     O    0.24842   0.99527   0.30571   1.000
    Zr37    Zr   0.83296   0.14339   0.91995   1.000
    O38     O    0.83302   0.16265   0.95239   1.000
    O39     O    0.87867   0.06818   0.91564   1.000
    O40     O    0.85980   0.19032   0.90229   1.000
    O41     O    0.75815   0.15549   0.91228   1.000
    Zr42    Zr   0.20516   0.50124   0.31762   1.000
    O43     O    0.14850   0.47526   0.32754   1.000
    O44     O    0.26642   0.44038   0.30647   1.000
    O45     O    0.22466   0.53438   0.34434   1.000
    O46     O    0.17708   0.55365   0.29319   1.000
    Zr47    Zr   0.79489   0.49849   0.68517   1.000
    O48     O    0.77541   0.46535   0.65844   1.000
    O49     O    0.85154   0.52450   0.67526   1.000
    O50     O    0.73361   0.55933   0.69631   1.000
    O51     O    0.82294   0.44602   0.70958   1.000
    Zr52    Zr   0.70522   0.00127   0.18518   1.000
    O53     O    0.72475   0.03440   0.15846   1.000
    O54     O    0.67711   0.05367   0.20960   1.000
    O55     O    0.76648   0.94042   0.19634   1.000
    O56     O    0.64858   0.97528   0.17524   1.000
    Zr57    Zr   0.16692   0.85640   0.08283   1.000
    O58     O    0.12121   0.93160   0.08714   1.000
    O59     O    0.14008   0.80948   0.10049   1.000
    O60     O    0.16685   0.83714   0.05177   1.000
    O61     O    0.24173   0.84432   0.09050   1.000
    Zr62    Zr   0.29474   0.99842   0.81762   1.000
    O63     O    0.32288   0.94604   0.79319   1.000
    O64     O    0.23348   0.05929   0.80648   1.000
    O65     O    0.35136   0.02442   0.82757   1.000
    O66     O    0.27520   0.96525   0.84432   1.000
    Zr67    Zr   0.33312   0.64347   0.58283   1.000
    O68     O    0.33311   0.66272   0.55039   1.000
    O69     O    0.37888   0.56827   0.58715   1.000
    O70     O    0.35995   0.69041   0.60049   1.000
    O71     O    0.25833   0.65552   0.59052   1.000
loop_
    _geom_bond_atom_site_label_1
    _geom_bond_atom_site_label_2
    _geom_bond_distance
    _geom_bond_site_symmetry_2
    _ccdc_geom_bond_type
    Zr12   O13       1.02501      .   S
    N1     O13       2.68724      .   S
    Zr12   O14       1.05972      .   S
    N6     O14       2.75948  1_455   S
    Zr12   O15       1.19606      .   S
    N7     O15       2.95336      .   S
    Zr12   O16       1.08554      .   S
    N4     O16       1.45435      .   S
    Zr17   O18       0.66053      .   S
    N4     O18       2.51998      .   S
    Zr17   O19       0.65978      .   S
    N0     O19       2.48281      .   S
    Zr17   O20       0.65654      .   S
    N3     O20       2.57458      .   S
    Zr17   O21       0.65653      .   S
    N10    O21       2.55734      .   S
    Zr22   O23       1.08570      .   S
    N8     O23       1.45458      .   S
    Zr22   O24       1.19606      .   S
    N11    O24       2.95315  1_465   S
    Zr22   O25       1.02506      .   S
    N3     O25       2.68795      .   S
    Zr22   O26       1.05931      .   S
    N2     O26       2.75894  1_565   S
    Zr27   O28       1.08535      .   S
    N11    O28       1.45413      .   S
    Zr27   O29       1.19589      .   S
    N8     O29       2.95329      .   S
    Zr27   O30       1.02512      .   S
    N5     O30       2.68678      .   S
    Zr27   O31       1.05985      .   S
    N9     O31       2.76001  1_655   S
    Zr32   O33       1.08558      .   S
    N7     O33       1.45442      .   S
    Zr32   O34       1.02498      .   S
    N0     O34       2.68772      .   S
    Zr32   O35       1.05959      .   S
    N10    O35       2.75923  1_545   S
    Zr32   O36       1.19599      .   S
    N4     O36       2.95316  1_645   S
    Zr37   O38       0.65656      .   S
    N1     O38       2.57461  1_554   S
    Zr37   O39       0.65977      .   S
    N5     O39       2.48249  1_465   S
    Zr37   O40       0.65657      .   S
    N9     O40       2.55734      .   S
    Zr37   O41       0.66058      .   S
    N8     O41       2.51996      .   S
    Zr42   O43       0.66368      .   S
    N4     O43       2.52944  1_655   S
    Zr42   O44       0.65929      .   S
    N10    O44       2.52103      .   S
    Zr42   O45       0.65614      .   S
    N0     O45       2.53695      .   S
    Zr42   O46       0.65460      .   S
    N6     O46       2.50931      .   S
    Zr47   O48       0.65617      .   S
    N3     O48       2.53676      .   S
    Zr47   O49       0.66371      .   S
    N11    O49       2.52982  1_455   S
    Zr47   O50       0.65929      .   S
    N2     O50       2.52107      .   S
    Zr47   O51       0.65464      .   S
    N9     O51       2.50890      .   S
    Zr52   O53       0.65611      .   S
    N1     O53       2.53722      .   S
    Zr52   O54       0.65456      .   S
    N10    O54       2.50940      .   S
    Zr52   O55       0.65932  1_545   S
    N6     O55       2.52078  1_455   S
    Zr52   O56       0.66371  1_545   S
    N7     O56       2.52966      .   S
    Zr57   O58       0.65974      .   S
    N1     O58       2.48228  1_645   S
    Zr57   O59       0.65653      .   S
    N6     O59       2.55745      .   S
    Zr57   O60       0.63069      .   S
    N5     O60       2.60127  1_556   S
    Zr57   O61       0.66058      .   S
    N7     O61       2.51991      .   S
    Zr62   O63       0.65456      .   S
    N2     O63       2.50966      .   S
    Zr62   O64       0.65930  1_565   S
    N9     O64       2.52117  1_655   S
    Zr62   O65       0.66371  1_565   S
    N8     O65       2.52946      .   S
    Zr62   O66       0.65609      .   S
    N5     O66       2.53739      .   S
    Zr67   O68       0.65654      .   S
    N0     O68       2.57459      .   S
    Zr67   O69       0.65978      .   S
    N3     O69       2.48298      .   S
    Zr67   O70       0.65652      .   S
    N2     O70       2.55719      .   S
    Zr67   O71       0.66055      .   S
    N11    O71       2.51997      .   S
