# CIF file generated by openbabel 2.4.90, see http://openbabel.sf.net
data_I
_chemical_name_common ''
_cell_length_a 9.0205
_cell_length_b 9.026
_cell_length_c 19.517
_cell_angle_alpha 89.999
_cell_angle_beta 89.997
_cell_angle_gamma 68.782
_space_group_name_H-M_alt 'P 1'
_space_group_name_Hall 'P 1'
loop_
    _symmetry_equiv_pos_as_xyz
    x,y,z
loop_
    _atom_site_label
    _atom_site_type_symbol
    _atom_site_fract_x
    _atom_site_fract_y
    _atom_site_fract_z
    _atom_site_occupancy
    C0      C    0.30306   0.98032   0.32645   1.000
    C1      C    0.16692   0.85640   0.08283   1.000
    C2      C    0.20516   0.50124   0.31762   1.000
    C3      C    0.19677   0.51941   0.82648   1.000
    C4      C    0.33312   0.64347   0.58283   1.000
    C5      C    0.29474   0.99842   0.81762   1.000
    C6      C    0.69698   0.01945   0.67633   1.000
    C7      C    0.83296   0.14339   0.91995   1.000
    C8      C    0.79489   0.49849   0.68517   1.000
    C9      C    0.80311   0.48035   0.17630   1.000
    C10     C    0.66691   0.35631   0.41995   1.000
    C11     C    0.70522   0.00127   0.18518   1.000
    C12     C    0.36993   0.66662   0.41968   1.000
    C13     C    0.51250   0.19207   0.31046   1.000
    C14     C    0.49137   0.79571   0.15927   1.000
    C15     C    0.12984   0.83307   0.91969   1.000
    C16     C    0.98737   0.30760   0.81044   1.000
    C17     C    0.00872   0.70414   0.65933   1.000
    C18     C    0.63013   0.33315   0.58311   1.000
    C19     C    0.48754   0.80766   0.69232   1.000
    C20     C    0.50850   0.20404   0.84352   1.000
    C21     C    0.87002   0.16664   0.08309   1.000
    C22     C    0.01254   0.69214   0.19234   1.000
    C23     C    0.99132   0.29566   0.34347   1.000
    C24     C    0.26842   0.92682   0.24162   1.000
    C25     C    0.34355   0.82736   0.38612   1.000
    C26     C    0.41634   0.78108   0.23306   1.000
    C27     C    0.45810   0.05454   0.33072   1.000
    C28     C    0.62245   0.63255   0.15238   1.000
    C29     C    0.25716   0.58961   0.38888   1.000
    C30     C    0.63026   0.14101   0.25031   1.000
    C31     C    0.55418   0.93197   0.15866   1.000
    C32     C    0.36852   0.33895   0.28791   1.000
    C33     C    0.36640   0.82420   0.10328   1.000
    C34     C    0.54493   0.55684   0.40845   1.000
    C35     C    0.33308   0.69481   0.49632   1.000
    C36     C    0.59533   0.23117   0.37287   1.000
    C37     C    0.23160   0.57297   0.74168   1.000
    C38     C    0.15621   0.67225   0.88621   1.000
    C39     C    0.08375   0.71878   0.73312   1.000
    C40     C    0.04169   0.44519   0.83069   1.000
    C41     C    0.87768   0.86730   0.65243   1.000
    C42     C    0.24263   0.90997   0.88882   1.000
    C43     C    0.86969   0.35858   0.75027   1.000
    C44     C    0.94596   0.56786   0.65875   1.000
    C45     C    0.13140   0.16073   0.78791   1.000
    C46     C    0.13369   0.67562   0.60334   1.000
    C47     C    0.95485   0.94284   0.90845   1.000
    C48     C    0.16672   0.80504   0.00000   1.000
    C49     C    0.90453   0.26853   0.87285   1.000
    C50     C    0.73149   0.07292   0.76119   1.000
    C51     C    0.65648   0.17241   0.61666   1.000
    C52     C    0.58350   0.21861   0.76971   1.000
    C53     C    0.54201   0.94513   0.67206   1.000
    C54     C    0.37739   0.36718   0.85039   1.000
    C55     C    0.74294   0.41012   0.61389   1.000
    C56     C    0.36978   0.85873   0.75247   1.000
    C57     C    0.44573   0.06776   0.84416   1.000
    C58     C    0.63147   0.66073   0.71488   1.000
    C59     C    0.63347   0.17564   0.89950   1.000
    C60     C    0.45514   0.44295   0.59434   1.000
    C61     C    0.66695   0.30495   0.50645   1.000
    C62     C    0.40466   0.76864   0.62991   1.000
    C63     C    0.76842   0.42681   0.26112   1.000
    C64     C    0.84360   0.32744   0.11660   1.000
    C65     C    0.91633   0.28105   0.26967   1.000
    C66     C    0.95813   0.55464   0.17205   1.000
    C67     C    0.12240   0.13251   0.35036   1.000
    C68     C    0.75730   0.08962   0.11394   1.000
    C69     C    0.13029   0.64101   0.25248   1.000
    C70     C    0.05407   0.43195   0.34409   1.000
    C71     C    0.86857   0.83900   0.21493   1.000
    C72     C    0.86634   0.32414   0.39945   1.000
    C73     C    0.04502   0.05694   0.09432   1.000
    C74     C    0.83313   0.19475   0.00645   1.000
    C75     C    0.09535   0.73129   0.12994   1.000
    O76     O    0.16682   0.83072   0.04141   1.000
    O77     O    0.14828   0.81906   0.95984   1.000
    O78     O    0.85157   0.18069   0.04477   1.000
    O79     O    0.83304   0.16907   0.96320   1.000
    O80     O    0.10597   0.95667   0.08857   1.000
    O81     O    0.26666   0.84030   0.09305   1.000
    O82     O    0.13114   0.79384   0.10638   1.000
    O83     O    0.95752   0.11179   0.08871   1.000
    O84     O    0.81366   0.12813   0.09851   1.000
    O85     O    0.85681   0.24704   0.09985   1.000
    O86     O    0.42888   0.80996   0.13127   1.000
    O87     O    0.73126   0.04544   0.14956   1.000
    O88     O    0.82335   0.40390   0.14645   1.000
    O89     O    0.05394   0.71172   0.16114   1.000
    O90     O    0.55691   0.71413   0.15582   1.000
    O91     O    0.71278   0.55645   0.16434   1.000
    O92     O    0.52277   0.86384   0.15896   1.000
    O93     O    0.62970   0.96662   0.17192   1.000
    O94     O    0.45385   0.78840   0.19616   1.000
    O95     O    0.88062   0.51750   0.17417   1.000
    O96     O    0.98533   0.62339   0.18220   1.000
    O97     O    0.78576   0.45358   0.21871   1.000
    O98     O    0.78689   0.92014   0.20005   1.000
    O99     O    0.66774   0.07114   0.21775   1.000
    O100    O    0.94055   0.76557   0.20364   1.000
    O101    O    0.07142   0.66657   0.22241   1.000
    O102    O    0.34238   0.85395   0.23734   1.000
    O103    O    0.28574   0.95357   0.28403   1.000
    O104    O    0.57138   0.16654   0.28039   1.000
    O105    O    0.16772   0.57113   0.28505   1.000
    O106    O    0.84237   0.35393   0.26540   1.000
    O107    O    0.95383   0.28836   0.30657   1.000
    O108    O    0.44051   0.26551   0.29918   1.000
    O109    O    0.28684   0.42010   0.30276   1.000
    O110    O    0.48530   0.12331   0.32059   1.000
    O111    O    0.55391   0.21162   0.34167   1.000
    O112    O    0.12961   0.46659   0.33085   1.000
    O113    O    0.23116   0.54542   0.35325   1.000
    O114    O    0.38058   0.01743   0.32859   1.000
    O115    O    0.21273   0.05641   0.33840   1.000
    O116    O    0.32330   0.90384   0.35629   1.000
    O117    O    0.02270   0.36380   0.34378   1.000
    O118    O    0.05686   0.21408   0.34691   1.000
    O119    O    0.92883   0.30990   0.37146   1.000
    O120    O    0.63112   0.29374   0.39641   1.000
    O121    O    0.35674   0.74699   0.40290   1.000
    O122    O    0.31354   0.62811   0.40428   1.000
    O123    O    0.76663   0.34023   0.40970   1.000
    O124    O    0.45743   0.61173   0.41406   1.000
    O125    O    0.60592   0.45658   0.41420   1.000
    O126    O    0.35150   0.68071   0.45800   1.000
    O127    O    0.66693   0.33063   0.46320   1.000
    O128    O    0.33310   0.66914   0.53958   1.000
    O129    O    0.64854   0.31905   0.54478   1.000
    O130    O    0.39413   0.54321   0.58859   1.000
    O131    O    0.23341   0.65954   0.59309   1.000
    O132    O    0.36889   0.70606   0.60637   1.000
    O133    O    0.54263   0.38805   0.58872   1.000
    O134    O    0.68653   0.37164   0.59850   1.000
    O135    O    0.64331   0.25278   0.59988   1.000
    O136    O    0.07121   0.68988   0.63133   1.000
    O137    O    0.76891   0.45430   0.64953   1.000
    O138    O    0.67673   0.09593   0.64650   1.000
    O139    O    0.44610   0.78815   0.66112   1.000
    O140    O    0.94320   0.78572   0.65588   1.000
    O141    O    0.78733   0.94338   0.66438   1.000
    O142    O    0.97734   0.63600   0.65904   1.000
    O143    O    0.87042   0.53317   0.67196   1.000
    O144    O    0.04624   0.71146   0.69622   1.000
    O145    O    0.61949   0.98229   0.67420   1.000
    O146    O    0.51477   0.87640   0.68219   1.000
    O147    O    0.71423   0.04618   0.71876   1.000
    O148    O    0.71318   0.57961   0.70002   1.000
    O149    O    0.83229   0.42853   0.71772   1.000
    O150    O    0.55950   0.73419   0.70360   1.000
    O151    O    0.42866   0.83320   0.72240   1.000
    O152    O    0.15767   0.64587   0.73740   1.000
    O153    O    0.21418   0.54619   0.78408   1.000
    O154    O    0.92853   0.33309   0.78036   1.000
    O155    O    0.33226   0.92858   0.78504   1.000
    O156    O    0.65750   0.14577   0.76545   1.000
    O157    O    0.54600   0.21133   0.80662   1.000
    O158    O    0.05938   0.23417   0.79917   1.000
    O159    O    0.21307   0.07958   0.80276   1.000
    O160    O    0.01453   0.37639   0.82056   1.000
    O161    O    0.94595   0.28806   0.84164   1.000
    O162    O    0.37024   0.03309   0.83089   1.000
    O163    O    0.26868   0.95420   0.85322   1.000
    O164    O    0.11923   0.48230   0.82858   1.000
    O165    O    0.28708   0.44329   0.83844   1.000
    O166    O    0.17649   0.59583   0.85635   1.000
    O167    O    0.47712   0.13590   0.84384   1.000
    O168    O    0.44294   0.28561   0.84696   1.000
    O169    O    0.57099   0.18984   0.87151   1.000
    O170    O    0.86874   0.20596   0.89640   1.000
    O171    O    0.14303   0.75266   0.90295   1.000
    O172    O    0.18624   0.87152   0.90425   1.000
    O173    O    0.73321   0.15952   0.90973   1.000
    O174    O    0.04235   0.88796   0.91407   1.000
    O175    O    0.89391   0.04312   0.91420   1.000
loop_
    _geom_bond_atom_site_label_1
    _geom_bond_atom_site_label_2
    _geom_bond_distance
    _geom_bond_site_symmetry_2
    _ccdc_geom_bond_type
    C48    O76       0.84093      .   S
    C1     O76       0.84093      .   S
    C48    O77       0.80167  1_554   S
    C15    O77       0.80167      .   S
    C74    O78       0.76672      .   S
    C21    O78       0.76672      .   S
    C74    O79       0.87541  1_554   S
    C7     O79       0.87541      .   S
    C1     O80       0.87966      .   S
    C73    O80       0.87966  1_545   S
    C1     O81       0.88077      .   S
    C33    O81       0.88077      .   S
    C1     O82       0.87538      .   S
    C75    O82       0.87538      .   S
    C21    O83       0.77284      .   S
    C73    O83       0.77284  1_455   S
    C21    O84       0.77314      .   S
    C68    O84       0.77314      .   S
    C21    O85       0.76494      .   S
    C64    O85       0.76494      .   S
    C33    O86       0.76175      .   S
    C14    O86       0.76175      .   S
    C68    O87       0.87481      .   S
    C11    O87       0.87481      .   S
    C64    O88       0.87046      .   S
    C9     O88       0.87046      .   S
    C75    O89       0.76763      .   S
    C22    O89       0.76763      .   S
    C28    O90       0.76233      .   S
    C14    O90       0.76233      .   S
    C28    O91       0.88603      .   S
    C9     O91       0.88603      .   S
    C31    O92       0.76455      .   S
    C14    O92       0.76455      .   S
    C31    O93       0.88495      .   S
    C11    O93       0.88495  1_545   S
    C14    O94       0.80846      .   S
    C26    O94       0.80846      .   S
    C66    O95       0.87899      .   S
    C9     O95       0.87899      .   S
    C66    O96       0.77119      .   S
    C22    O96       0.77119  1_455   S
    C9     O97       0.89187      .   S
    C63    O97       0.89187      .   S
    C11    O98       0.87909  1_545   S
    C71    O98       0.87909      .   S
    C11    O99       0.87275      .   S
    C30    O99       0.87275      .   S
    C22    O100      0.77331  1_455   S
    C71    O100      0.77331      .   S
    C22    O101      0.76876      .   S
    C69    O101      0.76876      .   S
    C26    O102      0.75304      .   S
    C24    O102      0.75304      .   S
    C24    O103      0.89186      .   S
    C0     O103      0.89186      .   S
    C30    O104      0.76883      .   S
    C13    O104      0.76883      .   S
    C69    O105      0.87280      .   S
    C2     O105      0.87280      .   S
    C63    O106      0.75305      .   S
    C65    O106      0.75305      .   S
    C65    O107      0.80844      .   S
    C23    O107      0.80844      .   S
    C32    O108      0.77329      .   S
    C13    O108      0.77329      .   S
    C32    O109      0.87905      .   S
    C2     O109      0.87905      .   S
    C13    O110      0.77118      .   S
    C27    O110      0.77118      .   S
    C13    O111      0.76768      .   S
    C36    O111      0.76768      .   S
    C2     O112      0.88491      .   S
    C70    O112      0.88491      .   S
    C2     O113      0.87486      .   S
    C29    O113      0.87486      .   S
    C0     O114      0.87892  1_565   S
    C27    O114      0.87892      .   S
    C0     O115      0.88600  1_565   S
    C67    O115      0.88600      .   S
    C0     O116      0.87045      .   S
    C25    O116      0.87045      .   S
    C23    O117      0.76449  1_655   S
    C70    O117      0.76449      .   S
    C23    O118      0.76229  1_655   S
    C67    O118      0.76229      .   S
    C23    O119      0.76171      .   S
    C72    O119      0.76171      .   S
    C36    O120      0.87537      .   S
    C10    O120      0.87537      .   S
    C25    O121      0.76493      .   S
    C12    O121      0.76493      .   S
    C29    O122      0.77314      .   S
    C12    O122      0.77314      .   S
    C72    O123      0.88071      .   S
    C10    O123      0.88071      .   S
    C34    O124      0.77291      .   S
    C12    O124      0.77291      .   S
    C34    O125      0.87971      .   S
    C10    O125      0.87971      .   S
    C12    O126      0.76679      .   S
    C35    O126      0.76679      .   S
    C10    O127      0.87538      .   S
    C61    O127      0.87538      .   S
    C35    O128      0.87539      .   S
    C4     O128      0.87539      .   S
    C61    O129      0.76680      .   S
    C18    O129      0.76680      .   S
    C4     O130      0.87970      .   S
    C60    O130      0.87970      .   S
    C4     O131      0.88073      .   S
    C46    O131      0.88073      .   S
    C4     O132      0.87536      .   S
    C62    O132      0.87536      .   S
    C18    O133      0.77292      .   S
    C60    O133      0.77292      .   S
    C18    O134      0.77314      .   S
    C55    O134      0.77314      .   S
    C18    O135      0.76495      .   S
    C51    O135      0.76495      .   S
    C46    O136      0.76173      .   S
    C17    O136      0.76173      .   S
    C55    O137      0.87489      .   S
    C8     O137      0.87489      .   S
    C51    O138      0.87047      .   S
    C6     O138      0.87047      .   S
    C62    O139      0.76770      .   S
    C19    O139      0.76770      .   S
    C41    O140      0.76229      .   S
    C17    O140      0.76229  1_455   S
    C41    O141      0.88601      .   S
    C6     O141      0.88601  1_545   S
    C44    O142      0.76449      .   S
    C17    O142      0.76449  1_455   S
    C44    O143      0.88495      .   S
    C8     O143      0.88495      .   S
    C17    O144      0.80844      .   S
    C39    O144      0.80844      .   S
    C53    O145      0.87888      .   S
    C6     O145      0.87888  1_545   S
    C53    O146      0.77116      .   S
    C19    O146      0.77116      .   S
    C6     O147      0.89184      .   S
    C50    O147      0.89184      .   S
    C8     O148      0.87906      .   S
    C58    O148      0.87906      .   S
    C8     O149      0.87285      .   S
    C43    O149      0.87285      .   S
    C19    O150      0.77330      .   S
    C58    O150      0.77330      .   S
    C19    O151      0.76882      .   S
    C56    O151      0.76882      .   S
    C39    O152      0.75305      .   S
    C37    O152      0.75305      .   S
    C37    O153      0.89187      .   S
    C3     O153      0.89187      .   S
    C43    O154      0.76880      .   S
    C16    O154      0.76880      .   S
    C56    O155      0.87274      .   S
    C5     O155      0.87274      .   S
    C50    O156      0.75306      .   S
    C52    O156      0.75306      .   S
    C52    O157      0.80846      .   S
    C20    O157      0.80846      .   S
    C45    O158      0.77329      .   S
    C16    O158      0.77329  1_655   S
    C45    O159      0.87907      .   S
    C5     O159      0.87907  1_565   S
    C16    O160      0.77120  1_655   S
    C40    O160      0.77120      .   S
    C16    O161      0.76764      .   S
    C49    O161      0.76764      .   S
    C5     O162      0.88494  1_565   S
    C57    O162      0.88494      .   S
    C5     O163      0.87478      .   S
    C42    O163      0.87478      .   S
    C3     O164      0.87899      .   S
    C40    O164      0.87899      .   S
    C3     O165      0.88598      .   S
    C54    O165      0.88598      .   S
    C3     O166      0.87046      .   S
    C38    O166      0.87046      .   S
    C20    O167      0.76453      .   S
    C57    O167      0.76453      .   S
    C20    O168      0.76232      .   S
    C54    O168      0.76232      .   S
    C20    O169      0.76175      .   S
    C59    O169      0.76175      .   S
    C49    O170      0.87543      .   S
    C7     O170      0.87543      .   S
    C38    O171      0.76496      .   S
    C15    O171      0.76496      .   S
    C42    O172      0.77313      .   S
    C15    O172      0.77313      .   S
    C59    O173      0.88077      .   S
    C7     O173      0.88077      .   S
    C47    O174      0.77287  1_655   S
    C15    O174      0.77287      .   S
    C47    O175      0.87969  1_565   S
    C7     O175      0.87969      .   S
