# CIF file generated by openbabel 2.4.90, see http://openbabel.sf.net
data_I
_chemical_name_common ''
_cell_length_a 9.0205
_cell_length_b 9.026
_cell_length_c 19.517
_cell_angle_alpha 89.999
_cell_angle_beta 89.997
_cell_angle_gamma 68.782
_space_group_name_H-M_alt 'P 1'
_space_group_name_Hall 'P 1'
loop_
    _symmetry_equiv_pos_as_xyz
    x,y,z
loop_
    _atom_site_label
    _atom_site_type_symbol
    _atom_site_fract_x
    _atom_site_fract_y
    _atom_site_fract_z
    _atom_site_occupancy
    Zr0     Zr   0.30306   0.98032   0.32645   1.000
    Zr1     Zr   0.16692   0.85640   0.08283   1.000
    Zr2     Zr   0.20516   0.50124   0.31762   1.000
    Zr3     Zr   0.19677   0.51941   0.82648   1.000
    Zr4     Zr   0.33312   0.64347   0.58283   1.000
    Zr5     Zr   0.29474   0.99842   0.81762   1.000
    Zr6     Zr   0.69698   0.01945   0.67633   1.000
    Zr7     Zr   0.83296   0.14339   0.91995   1.000
    Zr8     Zr   0.79489   0.49849   0.68517   1.000
    Zr9     Zr   0.80311   0.48035   0.17630   1.000
    Zr10    Zr   0.66691   0.35631   0.41995   1.000
    Zr11    Zr   0.70522   0.00127   0.18518   1.000
    Zr12    Zr   0.26842   0.92682   0.24162   1.000
    Zr13    Zr   0.41634   0.78108   0.23306   1.000
    Zr14    Zr   0.23160   0.57297   0.74168   1.000
    Zr15    Zr   0.08375   0.71878   0.73312   1.000
    Zr16    Zr   0.73149   0.07292   0.76119   1.000
    Zr17    Zr   0.58350   0.21861   0.76971   1.000
    Zr18    Zr   0.76842   0.42681   0.26112   1.000
    Zr19    Zr   0.91633   0.28105   0.26967   1.000
    O20     O    0.78576   0.45358   0.21871   1.000
    O21     O    0.34238   0.85395   0.23734   1.000
    O22     O    0.28574   0.95357   0.28403   1.000
    O23     O    0.84237   0.35393   0.26540   1.000
    O24     O    0.71423   0.04618   0.71876   1.000
    O25     O    0.15767   0.64587   0.73740   1.000
    O26     O    0.21418   0.54619   0.78408   1.000
    O27     O    0.65750   0.14577   0.76545   1.000
    N28     N    0.36993   0.66662   0.41968   1.000
    O29     O    0.57542   0.50671   0.41132   1.000
    O30     O    0.33309   0.68197   0.51795   1.000
    O31     O    0.24416   0.56751   0.37106   1.000
    O32     O    0.33343   0.86560   0.37120   1.000
    N33     N    0.87002   0.16664   0.08309   1.000
    O34     O    0.07550   0.00680   0.09145   1.000
    O35     O    0.83348   0.36567   0.13153   1.000
    O36     O    0.74428   0.06753   0.13175   1.000
    O37     O    0.83309   0.18191   0.98483   1.000
    N38     N    0.48754   0.80766   0.69232   1.000
    O39     O    0.38678   0.73735   0.61814   1.000
    O40     O    0.35102   0.89365   0.76876   1.000
    O41     O    0.58075   0.96371   0.67313   1.000
    O42     O    0.67232   0.62017   0.70745   1.000
    N43     N    0.63013   0.33315   0.58311   1.000
    O44     O    0.66661   0.13417   0.63158   1.000
    O45     O    0.66694   0.31779   0.48483   1.000
    O46     O    0.75593   0.43221   0.63171   1.000
    O47     O    0.42464   0.49308   0.59146   1.000
    N48     N    0.99132   0.29566   0.34347   1.000
    O49     O    0.97258   0.29201   0.32502   1.000
    O50     O    0.16756   0.09446   0.34438   1.000
    O51     O    0.09184   0.44927   0.33747   1.000
    O52     O    0.81648   0.33218   0.40457   1.000
    N53     N    0.12984   0.83307   0.91969   1.000
    O54     O    0.16677   0.81788   0.02071   1.000
    O55     O    0.92438   0.99298   0.91133   1.000
    O56     O    0.25566   0.93208   0.87102   1.000
    O57     O    0.16635   0.63404   0.87128   1.000
    N58     N    0.01254   0.69214   0.19234   1.000
    O59     O    0.11324   0.76257   0.11816   1.000
    O60     O    0.91937   0.53607   0.17311   1.000
    O61     O    0.82773   0.87957   0.20749   1.000
    O62     O    0.14901   0.60607   0.26876   1.000
    N63     N    0.49137   0.79571   0.15927   1.000
    O64     O    0.47261   0.79205   0.17772   1.000
    O65     O    0.31653   0.83225   0.09817   1.000
    O66     O    0.66761   0.59450   0.15836   1.000
    O67     O    0.59194   0.94929   0.16529   1.000
    N68     N    0.50850   0.20404   0.84352   1.000
    O69     O    0.52725   0.20768   0.82507   1.000
    O70     O    0.68334   0.16758   0.90461   1.000
    O71     O    0.40798   0.05042   0.83753   1.000
    O72     O    0.33223   0.40524   0.84441   1.000
    N73     N    0.98737   0.30760   0.81044   1.000
    O74     O    0.88664   0.23724   0.88463   1.000
    O75     O    0.08046   0.46374   0.82963   1.000
    O76     O    0.17223   0.12015   0.79533   1.000
    O77     O    0.85099   0.39356   0.73400   1.000
    N78     N    0.51250   0.19207   0.31046   1.000
    O79     O    0.64900   0.10608   0.23403   1.000
    O80     O    0.41934   0.03599   0.32965   1.000
    O81     O    0.32768   0.37952   0.29533   1.000
    O82     O    0.61322   0.26246   0.38464   1.000
    N83     N    0.00872   0.70414   0.65933   1.000
    O84     O    0.02748   0.70780   0.67778   1.000
    O85     O    0.18355   0.66758   0.59821   1.000
    O86     O    0.83250   0.90534   0.65840   1.000
    O87     O    0.90819   0.55052   0.66535   1.000
loop_
    _geom_bond_atom_site_label_1
    _geom_bond_atom_site_label_2
    _geom_bond_distance
    _geom_bond_site_symmetry_2
    _ccdc_geom_bond_type
    Zr9    O20       0.89187      .   S
    Zr18   O20       0.89187      .   S
    Zr13   O21       0.75304      .   S
    Zr12   O21       0.75304      .   S
    Zr12   O22       0.89186      .   S
    Zr0    O22       0.89186      .   S
    Zr18   O23       0.75305      .   S
    Zr19   O23       0.75305      .   S
    Zr6    O24       0.89184      .   S
    Zr16   O24       0.89184      .   S
    Zr15   O25       0.75305      .   S
    Zr14   O25       0.75305      .   S
    Zr14   O26       0.89187      .   S
    Zr3    O26       0.89187      .   S
    Zr16   O27       0.75306      .   S
    Zr17   O27       0.75306      .   S
    N28    O29       1.89981      .   S
    Zr10   O29       1.31957      .   S
    N28    O30       1.94298      .   S
    Zr4    O30       1.31308      .   S
    N28    O31       1.92926      .   S
    Zr2    O31       1.31228      .   S
    N28    O32       1.94958      .   S
    Zr0    O32       1.30568      .   S
    N33    O34       1.89947  1_655   S
    Zr1    O34       1.31949  1_565   S
    N33    O35       1.94952      .   S
    Zr9    O35       1.30568      .   S
    N33    O36       1.92941      .   S
    Zr11   O36       1.31222      .   S
    N33    O37       1.94292  1_554   S
    Zr7    O37       1.31311      .   S
    N38    O39       1.93463      .   S
    Zr4    O39       1.31304      .   S
    N38    O40       1.91111      .   S
    Zr5    O40       1.30911      .   S
    N38    O41       1.92053      .   S
    Zr6    O41       1.31833  1_545   S
    N38    O42       1.92034      .   S
    Zr8    O42       1.31859      .   S
    N43    O44       1.94961      .   S
    Zr6    O44       1.30570      .   S
    N43    O45       1.94298      .   S
    Zr10   O45       1.31308      .   S
    N43    O46       1.92915      .   S
    Zr8    O46       1.31233      .   S
    N43    O47       1.89990      .   S
    Zr4    O47       1.31955      .   S
    N48    O49       0.40422      .   S
    Zr19   O49       1.21266      .   S
    N48    O50       1.93284  1_655   S
    Zr0    O50       1.32900  1_565   S
    N48    O51       1.91527  1_655   S
    Zr2    O51       1.32736      .   S
    N48    O52       1.90834      .   S
    Zr10   O52       1.32106      .   S
    N53    O54       1.99597  1_556   S
    Zr1    O54       1.26139      .   S
    N53    O55       1.89961  1_455   S
    Zr7    O55       1.31954  1_545   S
    N53    O56       1.92948      .   S
    Zr5    O56       1.31217      .   S
    N53    O57       1.94942      .   S
    Zr3    O57       1.30569      .   S
    N58    O59       1.93470      .   S
    Zr1    O59       1.31307      .   S
    N58    O60       1.92056  1_455   S
    Zr9    O60       1.31848      .   S
    N58    O61       1.92020  1_455   S
    Zr11   O61       1.31864  1_545   S
    N58    O62       1.91085      .   S
    Zr2    O62       1.30920      .   S
    N63    O64       0.40423      .   S
    Zr13   O64       1.21268      .   S
    N63    O65       1.90833      .   S
    Zr1    O65       1.32116      .   S
    N63    O66       1.93294      .   S
    Zr9    O66       1.32905      .   S
    N63    O67       1.91543      .   S
    Zr11   O67       1.32742  1_545   S
    N68    O69       0.40423      .   S
    Zr17   O69       1.21269      .   S
    N68    O70       1.90835      .   S
    Zr7    O70       1.32116      .   S
    N68    O71       1.91531      .   S
    Zr5    O71       1.32742  1_565   S
    N68    O72       1.93297      .   S
    Zr3    O72       1.32898      .   S
    N73    O74       1.93465      .   S
    Zr7    O74       1.31314      .   S
    N73    O75       1.92052  1_655   S
    Zr3    O75       1.31848      .   S
    N73    O76       1.92039  1_655   S
    Zr5    O76       1.31860  1_565   S
    N73    O77       1.91067      .   S
    Zr8    O77       1.30928      .   S
    N78    O79       1.91098      .   S
    Zr11   O79       1.30912      .   S
    N78    O80       1.92044      .   S
    Zr0    O80       1.31838  1_565   S
    N78    O81       1.92032      .   S
    Zr2    O81       1.31857      .   S
    N78    O82       1.93470      .   S
    Zr10   O82       1.31305      .   S
    N83    O84       0.40422      .   S
    Zr15   O84       1.21266      .   S
    N83    O85       1.90835      .   S
    Zr4    O85       1.32109      .   S
    N83    O86       1.93279  1_455   S
    Zr6    O86       1.32901  1_545   S
    N83    O87       1.91546  1_455   S
    Zr8    O87       1.32742      .   S
