# CIF file generated by openbabel 2.4.90, see http://openbabel.sf.net
data_I
_chemical_name_common ''
_cell_length_a 13.19
_cell_length_b 13.947
_cell_length_c 16.988
_cell_angle_alpha 89.974
_cell_angle_beta 89.987
_cell_angle_gamma 90.126
_space_group_name_H-M_alt 'P 1'
_space_group_name_Hall 'P 1'
loop_
    _symmetry_equiv_pos_as_xyz
    x,y,z
loop_
    _atom_site_label
    _atom_site_type_symbol
    _atom_site_fract_x
    _atom_site_fract_y
    _atom_site_fract_z
    _atom_site_occupancy
    C0      C    0.42128   0.51599   0.27984   1.000
    C1      C    0.46329   0.41647   0.25631   1.000
    C2      C    0.57863   0.98411   0.77992   1.000
    C3      C    0.53667   0.08365   0.75636   1.000
    C4      C    0.92143   0.48376   0.21983   1.000
    C5      C    0.96343   0.58335   0.24363   1.000
    C6      C    0.07856   0.01632   0.71986   1.000
    C7      C    0.03658   0.91673   0.74369   1.000
    C8      C    0.57854   0.48656   0.72008   1.000
    C9      C    0.53475   0.58507   0.74390   1.000
    C10     C    0.42136   0.01608   0.22015   1.000
    C11     C    0.46332   0.91654   0.24368   1.000
    C12     C    0.07851   0.51628   0.78010   1.000
    C13     C    0.03655   0.41668   0.75631   1.000
    C14     C    0.92143   0.98375   0.28017   1.000
    C15     C    0.96341   0.08334   0.25633   1.000
loop_
    _geom_bond_atom_site_label_1
    _geom_bond_atom_site_label_2
    _geom_bond_distance
    _geom_bond_site_symmetry_2
    _ccdc_geom_bond_type
    C4     C5        1.54809      .   S
    C10    C11       1.54809  1_545   S
    C1     C0        1.54823      .   S
    C15    C14       1.54792  1_545   S
    C6     C7        1.54784  1_545   S
    C8     C9        1.54556      .   S
    C13    C12       1.54800      .   S
    C3     C2        1.54814  1_545   S
