# CIF file generated by openbabel 2.4.90, see http://openbabel.sf.net
data_I
_chemical_name_common ''
_cell_length_a 13.19
_cell_length_b 13.947
_cell_length_c 16.988
_cell_angle_alpha 89.974
_cell_angle_beta 89.987
_cell_angle_gamma 90.126
_space_group_name_H-M_alt 'P 1'
_space_group_name_Hall 'P 1'
loop_
    _symmetry_equiv_pos_as_xyz
    x,y,z
loop_
    _atom_site_label
    _atom_site_type_symbol
    _atom_site_fract_x
    _atom_site_fract_y
    _atom_site_fract_z
    _atom_site_occupancy
    Zr0     Zr   0.47601   0.40859   0.42682   1.000
    Zr1     Zr   0.42577   0.48013   0.09327   1.000
    Zr2     Zr   0.52396   0.09161   0.92687   1.000
    Zr3     Zr   0.57425   0.02004   0.59333   1.000
    Zr4     Zr   0.97756   0.59143   0.07306   1.000
    Zr5     Zr   0.92448   0.51973   0.40670   1.000
    Zr6     Zr   0.02242   0.90860   0.57308   1.000
    Zr7     Zr   0.07545   0.98055   0.90669   1.000
    Zr8     Zr   0.52362   0.59165   0.57316   1.000
    Zr9     Zr   0.57436   0.52038   0.90600   1.000
    Zr10    Zr   0.47604   0.90855   0.07314   1.000
    Zr11    Zr   0.42586   0.98019   0.40672   1.000
    Zr12    Zr   0.02243   0.40862   0.92692   1.000
    Zr13    Zr   0.07532   0.48054   0.59326   1.000
    Zr14    Zr   0.97758   0.09149   0.42690   1.000
    Zr15    Zr   0.92453   0.01961   0.09329   1.000
    C16     C    0.94242   0.03355   0.26825   1.000
    C17     C    0.94243   0.53355   0.23173   1.000
    C18     C    0.44234   0.96631   0.23191   1.000
    C19     C    0.44228   0.46623   0.26807   1.000
    C20     C    0.05753   0.46648   0.76820   1.000
    C21     C    0.05757   0.96653   0.73177   1.000
    C22     C    0.55665   0.53581   0.73199   1.000
    C23     C    0.55765   0.03388   0.76814   1.000
    C24     C    0.79524   0.48135   0.91798   1.000
    O25     O    0.72298   0.50069   0.91753   1.000
    O26     O    0.85970   0.52639   0.97536   1.000
    O27     O    0.87490   0.46052   0.92720   1.000
    C28     C    0.01716   0.78517   0.99921   1.000
    O29     O    0.98580   0.87106   0.03759   1.000
    O30     O    0.03362   0.85692   0.97228   1.000
    O31     O    0.00236   0.72443   0.02895   1.000
    C32     C    0.29598   0.01951   0.91706   1.000
    O33     O    0.22376   0.00023   0.91718   1.000
    O34     O    0.35977   0.97410   0.97476   1.000
    O35     O    0.37590   0.04007   0.92662   1.000
    C36     C    0.48369   0.28512   0.00083   1.000
    O37     O    0.46727   0.35675   0.02773   1.000
    O38     O    0.49867   0.22448   0.97105   1.000
    O39     O    0.51433   0.37127   0.96221   1.000
    C40     C    0.52556   0.10964   0.75030   1.000
    O41     O    0.53636   0.08420   0.75627   1.000
    O42     O    0.53860   0.08593   0.69444   1.000
    O43     O    0.52151   0.11293   0.80954   1.000
    C44     C    0.70397   0.98079   0.08129   1.000
    O45     O    0.77620   0.00004   0.08201   1.000
    O46     O    0.64019   0.02618   0.02443   1.000
    O47     O    0.62407   0.96021   0.07257   1.000
    C48     C    0.51662   0.21543   0.50093   1.000
    O49     O    0.50160   0.27595   0.47112   1.000
    O50     O    0.53295   0.14368   0.52787   1.000
    O51     O    0.48601   0.12925   0.46250   1.000
    C52     C    0.98278   0.21495   0.00079   1.000
    O53     O    0.96633   0.14321   0.02771   1.000
    O54     O    0.99758   0.27567   0.97104   1.000
    O55     O    0.01414   0.12907   0.96239   1.000
    C56     C    0.58878   0.46313   0.71418   1.000
    O57     O    0.57819   0.48716   0.72011   1.000
    O58     O    0.57084   0.49704   0.66204   1.000
    C59     C    0.20495   0.01923   0.41929   1.000
    O60     O    0.27723   0.99991   0.41844   1.000
    O61     O    0.14041   0.97395   0.47603   1.000
    O62     O    0.12522   0.03987   0.42788   1.000
    C63     C    0.51664   0.71537   0.99919   1.000
    O64     O    0.50159   0.77591   0.02896   1.000
    O65     O    0.53303   0.64373   0.97209   1.000
    O66     O    0.48595   0.62921   0.03760   1.000
    C67     C    0.29561   0.51948   0.58095   1.000
    O68     O    0.22347   0.50020   0.58175   1.000
    O69     O    0.37555   0.54006   0.57233   1.000
    O70     O    0.35953   0.47407   0.52418   1.000
    C71     C    0.01712   0.28522   0.50071   1.000
    O72     O    0.98575   0.37113   0.46234   1.000
    O73     O    0.03353   0.35696   0.52765   1.000
    O74     O    0.00237   0.22449   0.47098   1.000
    C75     C    0.98270   0.71498   0.49922   1.000
    O76     O    0.01401   0.62909   0.53761   1.000
    O77     O    0.96626   0.64327   0.47230   1.000
    O78     O    0.99750   0.77568   0.52896   1.000
    C79     C    0.08830   0.53990   0.78597   1.000
    O80     O    0.07816   0.51564   0.78006   1.000
    O81     O    0.06976   0.50542   0.83807   1.000
    C82     C    0.20487   0.51911   0.08069   1.000
    O83     O    0.14037   0.47389   0.02395   1.000
    O84     O    0.12516   0.53978   0.07209   1.000
    O85     O    0.27715   0.49980   0.08155   1.000
    C86     C    0.41148   0.53962   0.28562   1.000
    O87     O    0.42163   0.51536   0.27979   1.000
    O88     O    0.42930   0.50518   0.33780   1.000
    C89     C    0.79513   0.98107   0.58075   1.000
    O90     O    0.87484   0.96036   0.57214   1.000
    O91     O    0.72286   0.00038   0.58161   1.000
    O92     O    0.85965   0.02627   0.52399   1.000
    C93     C    0.48356   0.78496   0.49903   1.000
    O94     O    0.49848   0.72437   0.52886   1.000
    O95     O    0.51417   0.87107   0.53752   1.000
    O96     O    0.46721   0.85665   0.47215   1.000
    C97     C    0.97452   0.60933   0.24971   1.000
    O98     O    0.96373   0.58389   0.24369   1.000
    O99     O    0.96070   0.58570   0.30555   1.000
    O100    O    0.97937   0.61259   0.19047   1.000
    C101    C    0.70390   0.48088   0.41851   1.000
    O102    O    0.77613   0.50014   0.41785   1.000
    O103    O    0.64000   0.52630   0.47538   1.000
    O104    O    0.62400   0.46029   0.42726   1.000
    C105    C    0.41156   0.03972   0.21437   1.000
    O106    O    0.42171   0.01546   0.22020   1.000
    O107    O    0.42935   0.00524   0.16217   1.000
    C108    C    0.91163   0.46014   0.21394   1.000
    O109    O    0.92178   0.48440   0.21986   1.000
    O110    O    0.93020   0.49462   0.16186   1.000
    C111    C    0.08838   0.03993   0.71396   1.000
    O112    O    0.07822   0.01568   0.71989   1.000
    O113    O    0.06980   0.00546   0.66188   1.000
    C114    C    0.02242   0.39070   0.75020   1.000
    O115    O    0.03772   0.41439   0.69436   1.000
    O116    O    0.03473   0.41614   0.75623   1.000
    O117    O    0.01682   0.38745   0.80946   1.000
    C118    C    0.52324   0.61067   0.75010   1.000
    O119    O    0.53447   0.58556   0.74402   1.000
    O120    O    0.51925   0.61364   0.69079   1.000
    O121    O    0.53723   0.58678   0.80570   1.000
    C122    C    0.47441   0.39050   0.25026   1.000
    O123    O    0.46360   0.41592   0.25623   1.000
    O124    O    0.47847   0.38722   0.30951   1.000
    O125    O    0.46138   0.41421   0.19440   1.000
    C126    C    0.58844   0.96048   0.78571   1.000
    O127    O    0.57829   0.98474   0.77987   1.000
    O128    O    0.57063   0.99495   0.83789   1.000
    C129    C    0.47444   0.89056   0.24973   1.000
    O130    O    0.46364   0.91599   0.24376   1.000
    O131    O    0.47849   0.88726   0.19048   1.000
    O132    O    0.46143   0.91427   0.30559   1.000
    C133    C    0.97451   0.10933   0.25019   1.000
    O134    O    0.96371   0.08389   0.25624   1.000
    O135    O    0.97936   0.11259   0.30944   1.000
    O136    O    0.96070   0.08567   0.19436   1.000
    C137    C    0.02244   0.89075   0.74982   1.000
    O138    O    0.03476   0.91619   0.74377   1.000
    O139    O    0.03777   0.91442   0.80564   1.000
    O140    O    0.01683   0.88750   0.69056   1.000
    C141    C    0.91162   0.96013   0.28606   1.000
    O142    O    0.93020   0.99462   0.33813   1.000
    O143    O    0.92177   0.98439   0.28013   1.000
loop_
    _geom_bond_atom_site_label_1
    _geom_bond_atom_site_label_2
    _geom_bond_distance
    _geom_bond_site_symmetry_2
    _ccdc_geom_bond_type
    C24    O25       0.99117      .   S
    Zr9    O25       1.98968      .   S
    C24    O26       1.43746      .   S
    Zr4    O26       2.44758  1_554   S
    C24    O27       1.10194      .   S
    Zr12   O27       2.07777  1_455   S
    C28    O29       1.42621  1_456   S
    Zr15   O29       2.41869  1_545   S
    C28    O30       1.12094      .   S
    Zr7    O30       2.12433      .   S
    C28    O31       1.00481  1_556   S
    Zr4    O31       2.02617  1_655   S
    C32    O33       0.98928      .   S
    Zr7    O33       1.98291  1_565   S
    C32    O34       1.43954  1_545   S
    Zr10   O34       2.44672  1_554   S
    C32    O35       1.10381      .   S
    Zr2    O35       2.07960      .   S
    C36    O37       1.12044      .   S
    Zr1    O37       2.12260      .   S
    C36    O38       1.00560  1_554   S
    Zr2    O38       2.02790      .   S
    C36    O39       1.42643  1_554   S
    Zr9    O39       2.41953      .   S
    C40    O41       0.39575      .   S
    C23    O41       0.78279      .   S
    C40    O42       1.01971      .   S
    Zr3    O42       2.00473      .   S
    C40    O43       1.00889      .   S
    Zr2    O43       2.01536      .   S
    C44    O45       0.98929  1_565   S
    Zr15   O45       1.98414      .   S
    C44    O46       1.42961  1_565   S
    Zr2    O46       2.43635  1_556   S
    C44    O47       1.10177      .   S
    Zr10   O47       2.07978      .   S
    C48    O49       1.00429      .   S
    Zr0    O49       2.02588      .   S
    C48    O50       1.12151      .   S
    Zr3    O50       2.12357      .   S
    C48    O51       1.42556      .   S
    Zr11   O51       2.41756  1_565   S
    C52    O53       1.12067      .   S
    Zr15   O53       2.12379      .   S
    C52    O54       1.00470  1_554   S
    Zr12   O54       2.02569  1_455   S
    C52    O55       1.42611  1_654   S
    Zr7    O55       2.41849  1_565   S
    C56    O57       0.37709      .   S
    C22    O57       0.76347      .   S
    C56    O58       1.03172      .   S
    Zr8    O58       2.10024      .   S
    C59    O60       0.99141  1_545   S
    Zr11   O60       1.99015      .   S
    C59    O61       1.43153  1_545   S
    Zr6    O61       2.44175      .   S
    C59    O62       1.10071      .   S
    Zr14   O62       2.07766  1_655   S
    C63    O64       1.00458  1_556   S
    Zr10   O64       2.02555      .   S
    C63    O65       1.12170      .   S
    Zr9    O65       2.12680      .   S
    C63    O66       1.42511  1_556   S
    Zr1    O66       2.41626      .   S
    C67    O68       0.98833      .   S
    Zr13   O68       1.98219      .   S
    C67    O69       1.10185      .   S
    Zr8    O69       2.07998      .   S
    C67    O70       1.42997      .   S
    Zr0    O70       2.43643      .   S
    C71    O72       1.42591  1_455   S
    Zr5    O72       2.41820      .   S
    C71    O73       1.12105      .   S
    Zr13   O73       2.12480      .   S
    C71    O74       1.00501      .   S
    Zr14   O74       2.02661  1_655   S
    C75    O76       1.42577  1_655   S
    Zr13   O76       2.41787      .   S
    C75    O77       1.12075      .   S
    Zr5    O77       2.12412      .   S
    C75    O78       1.00495      .   S
    Zr6    O78       2.02606  1_455   S
    C79    O80       0.37721      .   S
    C20    O80       0.76420      .   S
    C79    O81       1.03605      .   S
    Zr12   O81       2.11775      .   S
    C82    O83       1.43149      .   S
    Zr12   O83       2.44176  1_556   S
    C82    O84       1.10054      .   S
    Zr4    O84       2.07746  1_655   S
    C82    O85       0.99136      .   S
    Zr1    O85       1.99009      .   S
    C86    O87       0.37739      .   S
    C19    O87       0.76444      .   S
    C86    O88       1.03542      .   S
    Zr0    O88       2.11736      .   S
    C89    O90       1.10068      .   S
    Zr6    O90       2.07773  1_455   S
    C89    O91       0.99123  1_565   S
    Zr3    O91       1.98983      .   S
    C89    O92       1.43112  1_565   S
    Zr14   O92       2.44106      .   S
    C93    O94       1.00496      .   S
    Zr8    O94       2.02590      .   S
    C93    O95       1.42526      .   S
    Zr3    O95       2.41638  1_545   S
    C93    O96       1.12050      .   S
    Zr11   O96       2.12225      .   S
    C97    O98       0.39554      .   S
    C17    O98       0.78256      .   S
    C97    O99       1.02043      .   S
    Zr5    O99       2.00584      .   S
    C97    O100      1.00938      .   S
    Zr4    O100      2.01653      .   S
    C101   O102      0.98937      .   S
    Zr5    O102      1.98415      .   S
    C101   O103      1.43082      .   S
    Zr8    O103      2.43989      .   S
    C101   O104      1.10172      .   S
    Zr0    O104      2.07951      .   S
    C105   O106      0.37731      .   S
    C18    O106      0.76433  1_565   S
    C105   O107      1.03597      .   S
    Zr10   O107      2.11912  1_565   S
    C108   O109      0.37728      .   S
    C17    O109      0.76430      .   S
    C108   O110      1.03589      .   S
    Zr4    O110      2.11737      .   S
    C111   O112      0.37719      .   S
    C21    O112      0.76414  1_565   S
    C111   O113      1.03630      .   S
    Zr6    O113      2.11891  1_565   S
    C114   O115      1.02426      .   S
    Zr13   O115      2.01067      .   S
    C114   O116      0.40317      .   S
    C20    O116      0.78994      .   S
    C114   O117      1.01038      .   S
    Zr12   O117      2.01868      .   S
    C118   O119      0.39438      .   S
    C22    O119      0.78077      .   S
    C118   O120      1.00979      .   S
    Zr8    O120      2.02259      .   S
    C118   O121      1.01850      .   S
    Zr9    O121      2.00043      .   S
    C122   O123      0.39575      .   S
    C19    O123      0.78281      .   S
    C122   O124      1.00888      .   S
    Zr0    O124      2.01549      .   S
    C122   O125      1.01962      .   S
    Zr1    O125      2.00450      .   S
    C126   O127      0.37736      .   S
    C23    O127      0.76439  1_545   S
    C126   O128      1.03565      .   S
    Zr2    O128      2.11817  1_545   S
    C129   O130      0.39572      .   S
    C18    O130      0.78274      .   S
    C129   O131      1.00902      .   S
    Zr10   O131      2.01550      .   S
    C129   O132      1.01973      .   S
    Zr11   O132      2.00491      .   S
    C133   O134      0.39556      .   S
    C16    O134      0.78254      .   S
    C133   O135      1.00961      .   S
    Zr14   O135      2.01696      .   S
    C133   O136      1.02066      .   S
    Zr15   O136      2.00607      .   S
    C137   O138      0.40310      .   S
    C21    O138      0.78983      .   S
    C137   O139      1.02434      .   S
    Zr7    O139      2.01100      .   S
    C137   O140      1.01045      .   S
    Zr6    O140      2.01847      .   S
    C141   O142      1.03627      .   S
    Zr14   O142      2.11867  1_545   S
    C141   O143      0.37721      .   S
    C16    O143      0.76419  1_545   S
