# CIF file generated by openbabel 2.4.90, see http://openbabel.sf.net
data_I
_chemical_name_common ''
_cell_length_a 13.063
_cell_length_b 13.036
_cell_length_c 17.836
_cell_angle_alpha 98.267
_cell_angle_beta 98.318
_cell_angle_gamma 118.299
_space_group_name_H-M_alt 'P 1'
_space_group_name_Hall 'P 1'
loop_
    _symmetry_equiv_pos_as_xyz
    x,y,z
loop_
    _atom_site_label
    _atom_site_type_symbol
    _atom_site_fract_x
    _atom_site_fract_y
    _atom_site_fract_z
    _atom_site_occupancy
    Zn0     Zn   0.66690   0.80589   0.54095   1.000
    Zn1     Zn   0.80648   0.66697   0.04114   1.000
    Zn2     Zn   0.33309   0.19413   0.45908   1.000
    Zn3     Zn   0.73911   0.26051   0.24994   1.000
    Zn4     Zn   0.26088   0.73951   0.75009   1.000
    B5      B    0.71682   0.02282   0.95246   1.000
    B6      B    0.97732   0.28318   0.54731   1.000
    B7      B    0.28316   0.97720   0.04757   1.000
    B8      B    0.02267   0.71684   0.45271   1.000
    H9      H    0.78374   0.95313   0.81245   1.000
    H10     H    0.01921   0.11339   0.81170   1.000
    H11     H    0.95608   0.23750   0.02089   1.000
    H12     H    0.57708   0.68933   0.06871   1.000
    H13     H    0.54171   0.87090   0.03000   1.000
    H14     H    0.84612   0.89250   0.95981   1.000
    H15     H    0.76021   0.05868   0.12133   1.000
    H16     H    0.75557   0.37723   0.10553   1.000
    H17     H    0.70674   0.24441   0.95749   1.000
    H18     H    0.67193   0.13496   0.83035   1.000
    H19     H    0.45894   0.98869   0.71904   1.000
    H20     H    0.49037   0.79716   0.88446   1.000
    H21     H    0.18526   0.45335   0.26181   1.000
    H22     H    0.39490   0.65807   0.11767   1.000
    H23     H    0.27240   0.35658   0.67133   1.000
    H24     H    0.49694   0.58766   0.89475   1.000
    H25     H    0.04659   0.21591   0.68740   1.000
    H26     H    0.88587   0.98031   0.68837   1.000
    H27     H    0.76297   0.04365   0.47880   1.000
    H28     H    0.31002   0.42349   0.43103   1.000
    H29     H    0.12841   0.45841   0.46936   1.000
    H30     H    0.10786   0.15403   0.54025   1.000
    H31     H    0.94095   0.23928   0.37837   1.000
    Zn32    Zn   0.19351   0.33305   0.95888   1.000
    H33     H    0.62316   0.24392   0.39440   1.000
    H34     H    0.75642   0.29360   0.54244   1.000
    H35     H    0.86556   0.32830   0.66941   1.000
    H36     H    0.01207   0.54125   0.78098   1.000
    H37     H    0.20285   0.50969   0.61545   1.000
    H38     H    0.54741   0.81379   0.23783   1.000
    H39     H    0.34150   0.60527   0.38196   1.000
    H40     H    0.64301   0.72673   0.82853   1.000
    H41     H    0.41174   0.50248   0.60512   1.000
    H42     H    0.21625   0.04688   0.18758   1.000
    H43     H    0.98078   0.88662   0.18833   1.000
    H44     H    0.04391   0.76253   0.97913   1.000
    H45     H    0.42291   0.31070   0.93130   1.000
    H46     H    0.45828   0.12913   0.96990   1.000
    H47     H    0.15387   0.10752   0.04021   1.000
    H48     H    0.23978   0.94135   0.87870   1.000
    H49     H    0.24441   0.62279   0.89449   1.000
    H50     H    0.29324   0.75561   0.04253   1.000
    H51     H    0.32807   0.86505   0.16967   1.000
    H52     H    0.54105   0.01129   0.28098   1.000
    H53     H    0.50961   0.20287   0.11558   1.000
    H54     H    0.81472   0.54668   0.73822   1.000
    H55     H    0.60510   0.34194   0.88235   1.000
    H56     H    0.72759   0.64344   0.32869   1.000
    H57     H    0.50304   0.41237   0.10528   1.000
    H58     H    0.95339   0.78412   0.31258   1.000
    H59     H    0.11411   0.01972   0.31166   1.000
    H60     H    0.23703   0.95637   0.52122   1.000
    H61     H    0.68997   0.57654   0.56900   1.000
    H62     H    0.87158   0.54162   0.53067   1.000
    H63     H    0.89213   0.84599   0.45970   1.000
    H64     H    0.05904   0.76075   0.62165   1.000
    H65     H    0.37683   0.75610   0.60562   1.000
    H66     H    0.24356   0.70642   0.45750   1.000
    H67     H    0.13443   0.67173   0.33061   1.000
    H68     H    0.98793   0.45878   0.21904   1.000
    H69     H    0.79714   0.49033   0.38458   1.000
    H70     H    0.45260   0.18622   0.76219   1.000
    H71     H    0.65848   0.39476   0.61807   1.000
    H72     H    0.35697   0.27329   0.17150   1.000
    H73     H    0.58825   0.49754   0.39491   1.000
    C74     C    0.85249   0.03469   0.85519   1.000
    C75     C    0.96852   0.11259   0.85480   1.000
    C76     C    0.93824   0.18123   0.96380   1.000
    C77     C    0.62770   0.75888   0.04037   1.000
    C78     C    0.60964   0.84827   0.02142   1.000
    C79     C    0.76862   0.86135   0.98449   1.000
    C80     C    0.75236   0.12740   0.09779   1.000
    C81     C    0.74955   0.29096   0.08740   1.000
    C82     C    0.72333   0.22436   0.01325   1.000
    C83     C    0.60190   0.04411   0.82604   1.000
    C84     C    0.49700   0.97029   0.77010   1.000
    C85     C    0.50976   0.86871   0.85489   1.000
    C86     C    0.19308   0.45081   0.11150   1.000
    C87     C    0.26376   0.53390   0.25734   1.000
    C88     C    0.27989   0.54839   0.18280   1.000
    C89     C    0.38204   0.65014   0.17600   1.000
    C90     C    0.28050   0.38655   0.82528   1.000
    C91     C    0.37266   0.46659   0.78676   1.000
    C92     C    0.35183   0.44012   0.70518   1.000
    C93     C    0.47899   0.56965   0.83130   1.000
    C94     C    0.96508   0.14717   0.64470   1.000
    C95     C    0.88698   0.03104   0.64517   1.000
    C96     C    0.81894   0.06147   0.53600   1.000
    C97     C    0.24067   0.37272   0.45939   1.000
    C98     C    0.15127   0.39055   0.47818   1.000
    C99     C    0.13873   0.23158   0.51545   1.000
    O100    O    0.46091   0.23440   0.54937   1.000
    O101    O    0.28525   0.19752   0.28794   1.000
    O102    O    0.43414   0.29708   0.39871   1.000
    C103    C    0.87248   0.24726   0.40197   1.000
    C104    C    0.70933   0.25006   0.41248   1.000
    C105    C    0.77614   0.27670   0.48661   1.000
    C106    C    0.95632   0.39831   0.67378   1.000
    C107    C    0.03030   0.50319   0.72984   1.000
    C108    C    0.13148   0.49035   0.64501   1.000
    C109    C    0.54966   0.80621   0.38799   1.000
    C110    C    0.46650   0.73568   0.24228   1.000
    C111    C    0.45187   0.71967   0.31682   1.000
    C112    C    0.34960   0.61806   0.32361   1.000
    C113    C    0.61314   0.71875   0.67450   1.000
    C114    C    0.53296   0.62663   0.71310   1.000
    C115    C    0.55939   0.64742   0.79468   1.000
    C116    C    0.42974   0.52042   0.66855   1.000
    C117    C    0.14750   0.96532   0.14484   1.000
    C118    C    0.03147   0.88743   0.14520   1.000
    C119    C    0.06175   0.81879   0.03623   1.000
    C120    C    0.37229   0.24114   0.95966   1.000
    C121    C    0.39035   0.15175   0.97861   1.000
    C122    C    0.23136   0.13868   0.01554   1.000
    C123    C    0.24763   0.87262   0.90223   1.000
    C124    C    0.25043   0.70906   0.91261   1.000
    C125    C    0.27665   0.77566   0.98677   1.000
    C126    C    0.39809   0.95591   0.17390   1.000
    C127    C    0.50300   0.02973   0.22992   1.000
    C128    C    0.49023   0.13131   0.14514   1.000
    C129    C    0.80690   0.54922   0.88845   1.000
    C130    C    0.73622   0.46614   0.74268   1.000
    C131    C    0.72010   0.45163   0.81722   1.000
    C132    C    0.61796   0.34988   0.82401   1.000
    C133    C    0.71949   0.61346   0.17470   1.000
    C134    C    0.62733   0.53344   0.21326   1.000
    C135    C    0.64816   0.55990   0.29485   1.000
    C136    C    0.52100   0.43037   0.16871   1.000
    C137    C    0.03490   0.85286   0.35533   1.000
    C138    C    0.11300   0.96898   0.35486   1.000
    C139    C    0.18105   0.93856   0.46402   1.000
    C140    C    0.75932   0.62730   0.54064   1.000
    C141    C    0.84873   0.60947   0.52180   1.000
    C142    C    0.86126   0.76844   0.48458   1.000
    C143    C    0.12751   0.75277   0.59806   1.000
    C144    C    0.29066   0.74996   0.58754   1.000
    C145    C    0.22385   0.72332   0.51341   1.000
    C146    C    0.04367   0.60171   0.32625   1.000
    C147    C    0.96969   0.49684   0.27018   1.000
    C148    C    0.86851   0.50967   0.35501   1.000
    C149    C    0.45034   0.19380   0.61203   1.000
    C150    C    0.53350   0.26432   0.75770   1.000
    C151    C    0.54813   0.28035   0.68320   1.000
    C152    C    0.65040   0.38196   0.67641   1.000
    C153    C    0.38685   0.28127   0.32546   1.000
    C154    C    0.46704   0.37338   0.28693   1.000
    C155    C    0.44059   0.35260   0.20535   1.000
    C156    C    0.57025   0.47961   0.33148   1.000
    N157    N    0.02093   0.20376   0.92271   1.000
    N158    N    0.83350   0.07901   0.92474   1.000
    N159    N    0.72751   0.76789   0.01689   1.000
    N160    N    0.69986   0.91381   0.98564   1.000
    N161    N    0.76766   0.22907   0.14044   1.000
    N162    N    0.72431   0.11970   0.01977   1.000
    N163    N    0.60961   0.97951   0.88032   1.000
    N164    N    0.43972   0.85963   0.78866   1.000
    N165    N    0.79606   0.97873   0.57722   1.000
    N166    N    0.92116   0.16624   0.57504   1.000
    N167    N    0.23200   0.27293   0.48306   1.000
    N168    N    0.08606   0.30019   0.51409   1.000
    N169    N    0.77084   0.23172   0.35938   1.000
    N170    N    0.88055   0.27573   0.48001   1.000
    N171    N    0.02072   0.39056   0.61947   1.000
    N172    N    0.14077   0.56040   0.71134   1.000
    N173    N    0.97906   0.79626   0.07732   1.000
    N174    N    0.16649   0.92101   0.07529   1.000
    N175    N    0.27248   0.23213   0.98314   1.000
    N176    N    0.30012   0.08621   0.01439   1.000
    N177    N    0.23233   0.77095   0.85958   1.000
    N178    N    0.27568   0.88032   0.98025   1.000
    N179    N    0.39038   0.02051   0.11970   1.000
    N180    N    0.56027   0.14038   0.21130   1.000
    N181    N    0.20393   0.02130   0.42281   1.000
    N182    N    0.07883   0.83378   0.42499   1.000
    N183    N    0.76799   0.72710   0.51690   1.000
    N184    N    0.91393   0.69984   0.48590   1.000
    N185    N    0.22915   0.76830   0.64064   1.000
    N186    N    0.11944   0.72430   0.52002   1.000
    N187    N    0.97926   0.60946   0.38055   1.000
    N188    N    0.85922   0.43962   0.28860   1.000
    O189    O    0.09445   0.36957   0.11681   1.000
    O190    O    0.23356   0.46126   0.04892   1.000
    O191    O    0.19700   0.28465   0.78780   1.000
    O192    O    0.29603   0.43429   0.89840   1.000
    O193    O    0.63122   0.90469   0.38265   1.000
    O194    O    0.53909   0.76562   0.45065   1.000
    O195    O    0.71474   0.80251   0.71209   1.000
    O196    O    0.56586   0.70295   0.60132   1.000
    O197    O    0.90551   0.63049   0.88320   1.000
    O198    O    0.76642   0.53876   0.95111   1.000
    O199    O    0.80300   0.71537   0.21214   1.000
    O200    O    0.70395   0.56573   0.10160   1.000
    O201    O    0.36880   0.09531   0.61737   1.000
loop_
    _geom_bond_atom_site_label_1
    _geom_bond_atom_site_label_2
    _geom_bond_distance
    _geom_bond_site_symmetry_2
    _ccdc_geom_bond_type
    C82    N162      1.39176      .   S
    C82    C81       1.37002      .   S
    C82    H17       1.08186  1_554   S
    N176   C122      1.36336      .   S
    N176   B7        1.54921  1_545   S
    N176   C121      1.39498  1_554   S
    C122   H47       1.08343      .   S
    C122   N175      1.33359  1_554   S
    N159   C77       1.38419      .   S
    N159   Zn1       2.07452      .   S
    N159   C79       1.33359  1_554   S
    N162   C80       1.36316      .   S
    N162   B5        1.56804  1_554   S
    H11    C76       1.08801  1_554   S
    C78    H13       1.08280      .   S
    C78    C77       1.37065      .   S
    C78    N160      1.39498  1_554   S
    C119   N174      1.36438      .   S
    C119   N173      1.33425  1_455   S
    C119   H44       1.08810  1_554   S
    C77    H12       1.08392      .   S
    Zn1    N173      2.00079      .   S
    Zn1    O200      1.96203      .   S
    Zn1    O198      1.94976  1_554   S
    H50    C125      1.08188  1_554   S
    B7     N174      1.53870      .   S
    B7     N179      1.56702  1_565   S
    B7     N178      1.56814  1_554   S
    O190   C86       1.30011      .   S
    O190   Zn32      1.94987  1_554   S
    N174   C117      1.39742      .   S
    N173   C118      1.38632  1_655   S
    C81    H16       1.08611      .   S
    C81    N161      1.39196      .   S
    C80    H15       1.08275      .   S
    C80    N161      1.33795      .   S
    O200   C133      1.30334      .   S
    H57    C136      1.08844      .   S
    C86    O189      1.24936      .   S
    C86    C88       1.50708      .   S
    H53    C128      1.08095      .   S
    H22    C89       1.08920      .   S
    N179   C128      1.35919      .   S
    N179   C126      1.39288  1_545   S
    N161   Zn3       2.06077      .   S
    C117   C118      1.36896      .   S
    C117   H42       1.08699  1_565   S
    C128   N180      1.33732      .   S
    C118   H43       1.08322  1_455   S
    C136   C155      1.39199      .   S
    C136   C134      1.40358      .   S
    H51    C126      1.08277      .   S
    H72    C155      1.08878      .   S
    C126   C127      1.37089  1_565   S
    C133   O199      1.24931      .   S
    C133   C134      1.50527      .   S
    C89    C88       1.40332      .   S
    C89    C110      1.39120      .   S
    C88    C87       1.40115      .   S
    C155   C154      1.40086      .   S
    N180   C127      1.39186      .   S
    N180   Zn3       2.03478      .   S
    C134   C135      1.40100      .   S
    H68    C147      1.08612      .   S
    C127   H52       1.08607      .   S
    H38    C110      1.08957      .   S
    C110   C111      1.40114      .   S
    Zn3    N188      2.03454      .   S
    Zn3    N169      2.06082      .   S
    C87    H21       1.08964      .   S
    C87    C112      1.39115      .   S
    C147   N188      1.39062      .   S
    C147   C146      1.37029  1_655   S
    C154   C153      1.50481      .   S
    C154   C156      1.40358      .   S
    O101   C153      1.24911      .   S
    N188   C148      1.33935      .   S
    C135   H56       1.08874      .   S
    C135   C156      1.39184      .   S
    H59    C138      1.08261  1_545   S
    H58    C137      1.08725  1_655   S
    C111   C112      1.40321      .   S
    C111   C109      1.50617      .   S
    C112   H39       1.08956      .   S
    C153   O102      1.30361      .   S
    C146   H67       1.08245      .   S
    C146   N187      1.39431  1_455   S
    C156   H73       1.08845      .   S
    C138   C137      1.36906      .   S
    C138   N181      1.38652  1_565   S
    C148   N187      1.35919      .   S
    C148   H69       1.08098      .   S
    C137   N182      1.39742      .   S
    N169   C103      1.33795      .   S
    N169   C104      1.39178      .   S
    H31    C103      1.08277      .   S
    N187   B8        1.56708  1_655   S
    O193   C109      1.24898      .   S
    C109   O194      1.30137      .   S
    H33    C104      1.08600      .   S
    O102   Zn2       1.96210      .   S
    C103   N170      1.36316      .   S
    C104   C105      1.37013      .   S
    N181   Zn2       2.00061      .   S
    N181   C139      1.33373  1_545   S
    N182   B8        1.53875      .   S
    N182   C139      1.36440      .   S
    H28    C97       1.08396      .   S
    O194   Zn0       1.95062      .   S
    B8     N184      1.54912  1_455   S
    B8     N186      1.56829      .   S
    H66    C145      1.08361      .   S
    Zn2    N167      2.07488      .   S
    Zn2    O100      1.95052      .   S
    C97    C98       1.37058      .   S
    C97    N167      1.38406      .   S
    H63    C142      1.08434      .   S
    C139   H60       1.08832      .   S
    H29    C98       1.08312      .   S
    C98    N168      1.39532      .   S
    H27    C96       1.08827      .   S
    N170   C105      1.39168      .   S
    N170   B6        1.56818      .   S
    N167   C99       1.33393      .   S
    C142   N184      1.36331      .   S
    C142   N183      1.33313      .   S
    N184   C141      1.39517      .   S
    C105   H34       1.08229      .   S
    C145   N186      1.39171      .   S
    C145   C144      1.37012      .   S
    N168   C99       1.36333      .   S
    N168   B6        1.54942  1_455   S
    C99    H30       1.08350      .   S
    N183   C140      1.38462      .   S
    N183   Zn0       2.07517      .   S
    N186   C143      1.36316      .   S
    C141   H62       1.08333      .   S
    C141   C140      1.37088      .   S
    C96    N166      1.36443      .   S
    C96    N165      1.33384  1_545   S
    C140   H61       1.08394      .   S
    Zn0    N165      2.00061      .   S
    Zn0    O196      1.96207      .   S
    B6     N166      1.53884      .   S
    B6     N171      1.56709  1_655   S
    O100   C149      1.30139      .   S
    N166   C94       1.39736      .   S
    N165   C95       1.38648  1_565   S
    C144   H65       1.08602      .   S
    C144   N185      1.39176      .   S
    C143   H64       1.08267      .   S
    C143   N185      1.33789      .   S
    O196   C113      1.30246      .   S
    H41    C116      1.08845      .   S
    C149   O201      1.24900      .   S
    C149   C151      1.50617      .   S
    H37    C108      1.08088      .   S
    H71    C152      1.08939      .   S
    N171   C108      1.35918      .   S
    N171   C106      1.39448  1_455   S
    N185   Zn4       2.06098      .   S
    C94    C95       1.36906      .   S
    C94    H25       1.08684  1_655   S
    C108   N172      1.33827      .   S
    C95    H26       1.08257  1_545   S
    C116   C92       1.39185      .   S
    C116   C114      1.40358      .   S
    H35    C106      1.08241      .   S
    H23    C92       1.08878      .   S
    C106   C107      1.37021  1_655   S
    C113   O195      1.24943      .   S
    C113   C114      1.50568      .   S
    C152   C151      1.40321      .   S
    C152   C130      1.39114      .   S
    C151   C150      1.40045      .   S
    C92    C91       1.40084      .   S
    N172   C107      1.39129      .   S
    N172   Zn4       2.03464      .   S
    C114   C115      1.40085      .   S
    H19    C84       1.08584      .   S
    C107   H36       1.08607      .   S
    H54    C130      1.08957      .   S
    C130   C131      1.40114      .   S
    Zn4    N164      2.03469      .   S
    Zn4    N177      2.06062      .   S
    C150   H70       1.08982      .   S
    C150   C132      1.39154      .   S
    C84    N164      1.39133      .   S
    C84    C83       1.37020  1_565   S
    C91    C90       1.50478      .   S
    C91    C93       1.40353      .   S
    O191   C90       1.24949      .   S
    N164   C85       1.33824      .   S
    C115   H40       1.08878      .   S
    C115   C93       1.39177      .   S
    H10    C75       1.08280  1_455   S
    H9     C74       1.08701  1_565   S
    C131   C132      1.40326      .   S
    C131   C129      1.50632      .   S
    C132   H55       1.08937      .   S
    C90    O192      1.30370      .   S
    C83    H18       1.08246      .   S
    C83    N163      1.39394  1_545   S
    C93    H24       1.08878      .   S
    C75    C74       1.36910      .   S
    C75    N157      1.38673  1_655   S
    C85    N163      1.35918      .   S
    C85    H20       1.08103      .   S
    C74    N158      1.39746      .   S
    N177   C123      1.33795      .   S
    N177   C124      1.39183      .   S
    H48    C123      1.08265      .   S
    N163   B5        1.56711  1_565   S
    O197   C129      1.24896      .   S
    C129   O198      1.30141      .   S
    H49    C124      1.08607      .   S
    O192   Zn32      1.96227      .   S
    C123   N178      1.36316      .   S
    C124   C125      1.37016      .   S
    N157   Zn32      2.00077      .   S
    N157   C76       1.33427  1_455   S
    N158   B5        1.53871      .   S
    N158   C76       1.36438      .   S
    H45    C120      1.08418      .   S
    B5     N160      1.54920  1_545   S
    Zn32   N175      2.07455      .   S
    C120   C121      1.37063      .   S
    C120   N175      1.38421      .   S
    H14    C79       1.08351      .   S
    H46    C121      1.08331      .   S
    N178   C125      1.39176      .   S
    C79    N160      1.36336      .   S
