# CIF file generated by openbabel 2.4.90, see http://openbabel.sf.net
data_I
_chemical_name_common ''
_cell_length_a 13.063
_cell_length_b 13.036
_cell_length_c 17.836
_cell_angle_alpha 98.267
_cell_angle_beta 98.318
_cell_angle_gamma 118.299
_space_group_name_H-M_alt 'P 1'
_space_group_name_Hall 'P 1'
loop_
    _symmetry_equiv_pos_as_xyz
    x,y,z
loop_
    _atom_site_label
    _atom_site_type_symbol
    _atom_site_fract_x
    _atom_site_fract_y
    _atom_site_fract_z
    _atom_site_occupancy
    Zn0     Zn   0.66690   0.80589   0.54095   1.000
    Zn1     Zn   0.80648   0.66697   0.04114   1.000
    Zn2     Zn   0.33309   0.19413   0.45908   1.000
    Zn3     Zn   0.73911   0.26051   0.24994   1.000
    Zn4     Zn   0.26088   0.73951   0.75009   1.000
    Zn5     Zn   0.19351   0.33305   0.95888   1.000
