# CIF file generated by openbabel 2.4.90, see http://openbabel.sf.net
data_I
_chemical_name_common ''
_cell_length_a 13.971
_cell_length_b 15.661
_cell_length_c 19.606
_cell_angle_alpha 89.992
_cell_angle_beta 90.005
_cell_angle_gamma 90.014
_space_group_name_H-M_alt 'P 1'
_space_group_name_Hall 'P 1'
loop_
    _symmetry_equiv_pos_as_xyz
    x,y,z
loop_
    _atom_site_label
    _atom_site_type_symbol
    _atom_site_fract_x
    _atom_site_fract_y
    _atom_site_fract_z
    _atom_site_occupancy
    H0      H    0.74330   0.96456   0.89026   1.000
    H1      H    0.65777   0.91286   0.29604   1.000
    H2      H    0.55458   0.76863   0.36232   1.000
    H3      H    0.76303   0.82857   0.88895   1.000
    H4      H    0.91153   0.78638   0.94209   1.000
    H5      H    0.06132   0.87446   0.09360   1.000
    H6      H    0.88993   0.95148   0.76557   1.000
    H7      H    0.97192   0.89441   0.66194   1.000
    H8      H    0.11529   0.94209   0.98719   1.000
    H9      H    0.82197   0.69533   0.89733   1.000
    H10     H    0.97372   0.60416   0.67880   1.000
    H11     H    0.00230   0.01828   0.07069   1.000
    H12     H    0.99404   0.05807   0.98620   1.000
    H13     H    0.83904   0.00917   0.97190   1.000
    H14     H    0.83549   0.99506   0.06154   1.000
    H15     H    0.70679   0.69955   0.37439   1.000
    H16     H    0.98896   0.95443   0.89080   1.000
    H17     H    0.04441   0.85287   0.89680   1.000
    H18     H    0.65804   0.94012   0.17042   1.000
    H19     H    0.81123   0.54977   0.10301   1.000
    H20     H    0.77650   0.62278   0.31259   1.000
    H21     H    0.92319   0.49567   0.76561   1.000
    H22     H    0.74904   0.69093   0.06503   1.000
    H23     H    0.89675   0.86074   0.10718   1.000
    H24     H    0.90338   0.76909   0.05387   1.000
    H25     H    0.82877   0.49015   0.98027   1.000
    H26     H    0.89534   0.58805   0.97258   1.000
    H27     H    0.76863   0.58728   0.95631   1.000
    H28     H    0.89242   0.41786   0.29238   1.000
    H29     H    0.91303   0.52822   0.31304   1.000
    H30     H    0.79669   0.48147   0.32580   1.000
    H31     H    0.76371   0.88625   0.38699   1.000
    H32     H    0.72466   0.75382   0.49549   1.000
    H33     H    0.71497   0.86571   0.49969   1.000
    H34     H    0.00950   0.84980   0.39499   1.000
    H35     H    0.91869   0.92459   0.37378   1.000
    H36     H    0.85378   0.66724   0.40639   1.000
    H37     H    0.97393   0.69984   0.39699   1.000
    H38     H    0.98607   0.73360   0.51461   1.000
    H39     H    0.87598   0.67946   0.52460   1.000
    H40     H    0.85575   0.82569   0.56932   1.000
    H41     H    0.99044   0.89031   0.50862   1.000
    H42     H    0.75747   0.03609   0.39046   1.000
    H43     H    0.84245   0.08723   0.79587   1.000
    H44     H    0.94543   0.23108   0.86203   1.000
    H45     H    0.73706   0.17220   0.38882   1.000
    H46     H    0.58859   0.21379   0.44180   1.000
    H47     H    0.43906   0.12576   0.59348   1.000
    H48     H    0.61146   0.04862   0.26528   1.000
    H49     H    0.52931   0.10523   0.16152   1.000
    H50     H    0.38507   0.05805   0.48711   1.000
    H51     H    0.67643   0.30510   0.39700   1.000
    H52     H    0.52531   0.39544   0.17800   1.000
    H53     H    0.49817   0.98212   0.57073   1.000
    H54     H    0.50636   0.94214   0.48637   1.000
    H55     H    0.66130   0.99116   0.47186   1.000
    H56     H    0.66500   0.00531   0.56145   1.000
    H57     H    0.79332   0.30055   0.87411   1.000
    H58     H    0.51131   0.04566   0.39073   1.000
    H59     H    0.45587   0.14720   0.39672   1.000
    H60     H    0.84229   0.05997   0.67023   1.000
    H61     H    0.68936   0.45033   0.60260   1.000
    H62     H    0.72299   0.37714   0.81226   1.000
    H63     H    0.57403   0.50416   0.26554   1.000
    H64     H    0.75165   0.30922   0.56475   1.000
    H65     H    0.60359   0.13970   0.60702   1.000
    H66     H    0.59683   0.23127   0.55361   1.000
    H67     H    0.66680   0.50985   0.48065   1.000
    H68     H    0.60209   0.41100   0.47273   1.000
    H69     H    0.72876   0.41376   0.45635   1.000
    H70     H    0.60541   0.58142   0.79156   1.000
    H71     H    0.58515   0.47084   0.81164   1.000
    H72     H    0.70089   0.51813   0.82570   1.000
    H73     H    0.73612   0.11393   0.88682   1.000
    H74     H    0.77549   0.24633   0.99527   1.000
    H75     H    0.78511   0.13443   0.99948   1.000
    H76     H    0.49043   0.15066   0.89497   1.000
    H77     H    0.58108   0.07579   0.87366   1.000
    H78     H    0.64645   0.33303   0.90632   1.000
    H79     H    0.52622   0.30061   0.89690   1.000
    H80     H    0.51413   0.26668   0.01455   1.000
    H81     H    0.62427   0.32075   0.02458   1.000
    H82     H    0.64446   0.17447   0.06918   1.000
    H83     H    0.50966   0.10994   0.00857   1.000
    H84     H    0.25759   0.46447   0.60960   1.000
    H85     H    0.34218   0.41296   0.20379   1.000
    H86     H    0.44542   0.26869   0.13760   1.000
    H87     H    0.23699   0.32844   0.61088   1.000
    H88     H    0.08830   0.28716   0.55776   1.000
    H89     H    0.93899   0.37647   0.40635   1.000
    H90     H    0.11022   0.45161   0.73433   1.000
    H91     H    0.02803   0.39450   0.83789   1.000
    H92     H    0.88536   0.44387   0.51289   1.000
    H93     H    0.17793   0.19555   0.60248   1.000
    H94     H    0.02609   0.10427   0.82092   1.000
    H95     H    0.99875   0.51987   0.42955   1.000
    C96     C    0.08422   0.77348   0.02344   1.000
    C97     C    0.83537   0.55032   0.95211   1.000
    C98     C    0.86070   0.48176   0.29325   1.000
    C99     C    0.77372   0.81946   0.40285   1.000
    H100    H    0.00733   0.55938   0.51405   1.000
    H101    H    0.16200   0.50971   0.52823   1.000
    H102    H    0.16542   0.49587   0.43860   1.000
    H103    H    0.29327   0.19946   0.12573   1.000
    H104    H    0.01169   0.45531   0.60935   1.000
    H105    H    0.95571   0.35399   0.60297   1.000
    H106    H    0.34198   0.44041   0.32939   1.000
    H107    H    0.18876   0.05014   0.39733   1.000
    H108    H    0.22352   0.12278   0.18765   1.000
    H109    H    0.07669   0.99579   0.73423   1.000
    H110    H    0.25093   0.19141   0.43511   1.000
    H111    H    0.10346   0.36189   0.39270   1.000
    H112    H    0.09617   0.27017   0.44595   1.000
    H113    H    0.17148   0.99029   0.51965   1.000
    H114    H    0.10485   0.08815   0.52723   1.000
    H115    H    0.23151   0.08749   0.54360   1.000
    H116    H    0.10763   0.91786   0.20800   1.000
    H117    H    0.08713   0.00000   0.18720   1.000
    H118    H    0.20346   0.98141   0.17468   1.000
    H119    H    0.23613   0.38607   0.11289   1.000
    H120    H    0.27514   0.25347   0.00454   1.000
    H121    H    0.28486   0.36536   0.00000   1.000
    H122    H    0.99038   0.34930   0.10506   1.000
    H123    H    0.08112   0.42421   0.12622   1.000
    H124    H    0.14630   0.16694   0.09370   1.000
    H125    H    0.02611   0.19937   0.10319   1.000
    H126    H    0.01374   0.23312   0.98555   1.000
    H127    H    0.12383   0.17905   0.97546   1.000
    C128    C    0.11379   0.23931   0.69741   1.000
    C129    C    0.09834   0.38335   0.73952   1.000
    C130    C    0.05267   0.35100   0.79800   1.000
    C131    C    0.96125   0.42686   0.50700   1.000
    C132    C    0.14143   0.17647   0.64899   1.000
    H133    H    0.14399   0.32527   0.93070   1.000
    H134    H    0.00936   0.38987   0.99141   1.000
    H135    H    0.24199   0.53606   0.10955   1.000
    H136    H    0.15746   0.58717   0.70388   1.000
    H137    H    0.05450   0.73104   0.63784   1.000
    H138    H    0.26288   0.67219   0.11103   1.000
    H139    H    0.41152   0.71331   0.05801   1.000
    H140    H    0.56125   0.62524   0.90678   1.000
    H141    H    0.38832   0.54851   0.23469   1.000
    H142    H    0.47065   0.60513   0.33838   1.000
    H143    H    0.61485   0.55743   0.01320   1.000
    H144    H    0.32361   0.80491   0.10244   1.000
    H145    H    0.47477   0.89534   0.32131   1.000
    H146    H    0.50177   0.48159   0.92943   1.000
    H147    H    0.49351   0.44154   0.01379   1.000
    H148    H    0.33864   0.49070   0.02836   1.000
    H149    H    0.33493   0.50461   0.93873   1.000
    H150    H    0.20657   0.80063   0.62585   1.000
    H151    H    0.48823   0.54506   0.10941   1.000
    H152    H    0.54394   0.64653   0.10352   1.000
    H153    H    0.15765   0.55965   0.82949   1.000
    H154    H    0.31062   0.94995   0.89750   1.000
    H155    H    0.27690   0.87716   0.68780   1.000
    H156    H    0.42600   0.00405   0.23425   1.000
    H157    H    0.24835   0.80870   0.93525   1.000
    H158    H    0.39675   0.63889   0.89298   1.000
    H159    H    0.40330   0.73062   0.94622   1.000
    H160    H    0.33294   0.00969   0.01919   1.000
    H161    H    0.39772   0.91088   0.02708   1.000
    H162    H    0.27108   0.91357   0.04359   1.000
    H163    H    0.39448   0.08143   0.70864   1.000
    H164    H    0.41470   0.97089   0.68845   1.000
    H165    H    0.29895   0.01817   0.67442   1.000
    H166    H    0.26384   0.61406   0.61302   1.000
    H167    H    0.22467   0.74669   0.50467   1.000
    H168    H    0.21488   0.63481   0.50036   1.000
    H169    H    0.50954   0.65092   0.60504   1.000
    H170    H    0.41888   0.57598   0.62630   1.000
    H171    H    0.35352   0.83321   0.59368   1.000
    H172    H    0.47374   0.80085   0.60310   1.000
    H173    H    0.48599   0.76702   0.48552   1.000
    H174    H    0.37587   0.82106   0.47544   1.000
    H175    H    0.35568   0.67483   0.43077   1.000
    H176    H    0.49042   0.61030   0.49143   1.000
    C177    C    0.67942   0.86234   0.26113   1.000
    C178    C    0.82784   0.86585   0.87633   1.000
    C179    C    0.89915   0.85517   0.93616   1.000
    C180    C    0.70574   0.78330   0.28671   1.000
    C181    C    0.93053   0.71202   0.73996   1.000
    C182    C    0.02821   0.85253   0.04583   1.000
    C183    C    0.73081   0.73987   0.16757   1.000
    C184    C    0.87200   0.82886   0.81181   1.000
    C185    C    0.88614   0.73915   0.80241   1.000
    C186    C    0.90171   0.88322   0.76034   1.000
    C187    C    0.94727   0.85089   0.70182   1.000
    C188    C    0.03932   0.92533   0.99256   1.000
    C189    C    0.85846   0.67629   0.85080   1.000
    C190    C    0.94188   0.62332   0.72724   1.000
    C191    C    0.98088   0.00170   0.01830   1.000
    C192    C    0.87387   0.97720   0.01478   1.000
    C193    C    0.69782   0.76828   0.36330   1.000
    C194    C    0.87524   0.59067   0.83790   1.000
    C195    C    0.73569   0.71960   0.23906   1.000
    C196    C    0.99714   0.89779   0.92358   1.000
    C197    C    0.67927   0.87814   0.19077   1.000
    C198    C    0.78976   0.59826   0.13977   1.000
    C199    C    0.77076   0.63803   0.25876   1.000
    C200    C    0.91472   0.56383   0.77487   1.000
    C201    C    0.75651   0.67654   0.11918   1.000
    C202    C    0.79906   0.57907   0.21000   1.000
    C203    C    0.91948   0.83749   0.05688   1.000
    C204    C    0.76076   0.81381   0.48123   1.000
    C205    C    0.93487   0.86830   0.40510   1.000
    C206    C    0.90447   0.71869   0.41871   1.000
    C207    C    0.91131   0.73202   0.49710   1.000
    C208    C    0.86075   0.81651   0.51400   1.000
    C209    C    0.92085   0.88987   0.48209   1.000
    C210    C    0.87718   0.97754   0.49685   1.000
    C211    C    0.82078   0.13773   0.76090   1.000
    C212    C    0.67253   0.13453   0.37618   1.000
    C213    C    0.60112   0.14504   0.43599   1.000
    C214    C    0.79433   0.21674   0.78650   1.000
    C215    C    0.56896   0.28781   0.23960   1.000
    C216    C    0.47210   0.14772   0.54569   1.000
    C217    C    0.76948   0.26021   0.66733   1.000
    C218    C    0.62819   0.17129   0.31161   1.000
    C219    C    0.61328   0.26092   0.30224   1.000
    C220    C    0.59913   0.11680   0.26005   1.000
    C221    C    0.55348   0.14888   0.20140   1.000
    C222    C    0.46103   0.07488   0.49248   1.000
    C223    C    0.63999   0.32390   0.35080   1.000
    C224    C    0.55694   0.37644   0.22697   1.000
    C225    C    0.51952   0.99859   0.51831   1.000
    C226    C    0.62653   0.02313   0.51471   1.000
    C227    C    0.80221   0.23179   0.86310   1.000
    C228    C    0.62224   0.40940   0.33805   1.000
    C229    C    0.76435   0.28043   0.73880   1.000
    C230    C    0.50316   0.10232   0.42346   1.000
    C231    C    0.82103   0.12194   0.69057   1.000
    C232    C    0.71065   0.40181   0.63941   1.000
    C233    C    0.72904   0.36195   0.75844   1.000
    C234    C    0.58310   0.43605   0.27477   1.000
    C235    C    0.74399   0.32355   0.61889   1.000
    C236    C    0.70093   0.42092   0.70981   1.000
    C237    C    0.58082   0.16287   0.55670   1.000
    C238    C    0.41592   0.22668   0.52329   1.000
    C239    C    0.66131   0.44972   0.45232   1.000
    C240    C    0.63756   0.51769   0.79257   1.000
    C241    C    0.72624   0.18073   0.90266   1.000
    C242    C    0.73933   0.18636   0.98100   1.000
    C243    C    0.56503   0.13206   0.90500   1.000
    C244    C    0.59567   0.28164   0.91863   1.000
    C245    C    0.58888   0.26824   0.99700   1.000
    C246    C    0.63939   0.18370   0.01387   1.000
    C247    C    0.57919   0.11040   0.98197   1.000
    C248    C    0.62292   0.02273   0.99662   1.000
    C249    C    0.32058   0.36248   0.23878   1.000
    C250    C    0.17249   0.36605   0.62361   1.000
    C251    C    0.10104   0.35589   0.56378   1.000
    C252    C    0.29427   0.28338   0.21330   1.000
    C253    C    0.06934   0.21216   0.75984   1.000
    C254    C    0.97195   0.35426   0.45407   1.000
    C255    C    0.26922   0.24014   0.33250   1.000
    C256    C    0.12807   0.32903   0.68805   1.000
    C257    C    0.05796   0.12345   0.77257   1.000
    C258    C    0.02011   0.50305   0.48190   1.000
    C259    C    0.12696   0.47805   0.48534   1.000
    C260    C    0.30217   0.26823   0.13671   1.000
    C261    C    0.12468   0.09083   0.66185   1.000
    C262    C    0.26435   0.21974   0.26104   1.000
    C263    C    0.00327   0.39886   0.57640   1.000
    C264    C    0.32075   0.37839   0.30910   1.000
    C265    C    0.21024   0.09857   0.36050   1.000
    C266    C    0.22927   0.13811   0.24146   1.000
    C267    C    0.08516   0.06397   0.72496   1.000
    C268    C    0.24349   0.17691   0.38098   1.000
    C269    C    0.20095   0.07924   0.29011   1.000
    C270    C    0.08056   0.33865   0.44302   1.000
    C271    C    0.91535   0.27556   0.47644   1.000
    C272    C    0.16479   0.05047   0.54780   1.000
    C273    C    0.13939   0.98176   0.20717   1.000
    C274    C    0.22618   0.31924   0.09713   1.000
    C275    C    0.23907   0.31347   0.01875   1.000
    C276    C    0.06498   0.36789   0.09494   1.000
    C277    C    0.09551   0.21830   0.08140   1.000
    C278    C    0.08853   0.23160   0.00000   1.000
    C279    C    0.13904   0.31611   0.98603   1.000
    C280    C    0.07896   0.38945   0.01793   1.000
    C281    C    0.12268   0.47711   0.00000   1.000
    C282    C    0.17912   0.63761   0.73888   1.000
    C283    C    0.32723   0.63438   0.12377   1.000
    C284    C    0.39880   0.64458   0.06401   1.000
    C285    C    0.20560   0.71668   0.71341   1.000
    C286    C    0.43105   0.78769   0.26016   1.000
    C287    C    0.52804   0.64717   0.95451   1.000
    C288    C    0.23049   0.75990   0.83261   1.000
    C289    C    0.37167   0.67116   0.18830   1.000
    C290    C    0.38669   0.76079   0.19762   1.000
    C291    C    0.40074   0.61669   0.23988   1.000
    C292    C    0.44647   0.64877   0.29843   1.000
    C293    C    0.53892   0.57429   0.00774   1.000
    C294    C    0.36001   0.82377   0.14903   1.000
    C295    C    0.44311   0.87633   0.27280   1.000
    C296    C    0.48041   0.49803   0.98185   1.000
    C297    C    0.37343   0.52255   0.98540   1.000
    C298    C    0.19772   0.73184   0.63682   1.000
    C299    C    0.37776   0.90927   0.16177   1.000
    C300    C    0.23558   0.78028   0.76115   1.000
    C301    C    0.49662   0.60174   0.07670   1.000
    C302    C    0.17891   0.62167   0.80920   1.000
    C303    C    0.28932   0.90149   0.86067   1.000
    C304    C    0.27088   0.86185   0.74160   1.000
    C305    C    0.41693   0.93593   0.22504   1.000
    C306    C    0.25599   0.82316   0.88112   1.000
    C307    C    0.29902   0.92074   0.79029   1.000
    C308    C    0.41936   0.66221   0.94329   1.000
    C309    C    0.58408   0.72625   0.97693   1.000
    C310    C    0.33853   0.94958   0.04750   1.000
    C311    C    0.36232   0.01769   0.70760   1.000
    C312    C    0.27373   0.68089   0.59724   1.000
    C313    C    0.26073   0.68666   0.51887   1.000
    C314    C    0.43495   0.63229   0.59490   1.000
    C315    C    0.40433   0.78187   0.58138   1.000
    C316    C    0.41122   0.76853   0.50000   1.000
    C317    C    0.36071   0.68400   0.48609   1.000
    C318    C    0.42086   0.61068   0.51000   1.000
    C319    C    0.37721   0.52297   0.50300   1.000
    N320    N    0.70287   0.81895   0.14466   1.000
    N321    N    0.96235   0.76811   0.69145   1.000
    N322    N    0.86043   0.88297   0.00450   1.000
    N323    N    0.87281   0.79704   0.38303   1.000
    N324    N    0.79751   0.18115   0.64444   1.000
    N325    N    0.53779   0.23157   0.19108   1.000
    N326    N    0.63988   0.11736   0.50440   1.000
    N327    N    0.62716   0.20328   0.88291   1.000
    N328    N    0.29717   0.31927   0.35531   1.000
    N329    N    0.03753   0.26822   0.80835   1.000
    N330    N    0.13986   0.38373   0.49542   1.000
    N331    N    0.12713   0.29672   0.11700   1.000
    N332    N    0.20248   0.68078   0.85541   1.000
    N333    N    0.46222   0.73146   0.30877   1.000
    N334    N    0.36017   0.61680   0.99559   1.000
    N335    N    0.37279   0.70345   0.61705   1.000
    O336    O    0.80266   0.95274   0.86420   1.000
    O337    O    0.60765   0.79667   0.38886   1.000
    O338    O    0.85448   0.52592   0.88265   1.000
    O339    O    0.83724   0.50071   0.22371   1.000
    O340    O    0.17513   0.77444   0.03288   1.000
    O341    O    0.04160   0.71178   0.99438   1.000
    O342    O    0.85025   0.02628   0.44783   1.000
    O343    O    0.87038   0.00000   0.55888   1.000
    O344    O    0.69835   0.04780   0.36415   1.000
    O345    O    0.89232   0.20332   0.88872   1.000
    O346    O    0.64164   0.47418   0.38295   1.000
    O347    O    0.66256   0.49923   0.72321   1.000
    O348    O    0.32501   0.22559   0.53271   1.000
    O349    O    0.45842   0.28847   0.49428   1.000
    O350    O    0.64996   0.97410   0.94761   1.000
    O351    O    0.62972   0.99930   0.05868   1.000
    O352    O    0.19841   0.45271   0.63592   1.000
    O353    O    0.39229   0.29670   0.11110   1.000
    O354    O    0.14550   0.02606   0.61720   1.000
    O355    O    0.16275   0.00000   0.27671   1.000
    O356    O    0.82451   0.27707   0.46712   1.000
    O357    O    0.95776   0.21365   0.50543   1.000
    O358    O    0.14961   0.52587   0.05214   1.000
    O359    O    0.12959   0.50045   0.94111   1.000
    O360    O    0.30103   0.54776   0.13597   1.000
    O361    O    0.10763   0.70331   0.61117   1.000
    O362    O    0.35832   0.97407   0.11688   1.000
    O363    O    0.33740   0.99910   0.77696   1.000
    O364    O    0.67504   0.72523   0.96768   1.000
    O365    O    0.54146   0.78811   0.00571   1.000
    O366    O    0.35028   0.47424   0.55220   1.000
    O367    O    0.37038   0.49958   0.44124   1.000
loop_
    _geom_bond_atom_site_label_1
    _geom_bond_atom_site_label_2
    _geom_bond_distance
    _geom_bond_site_symmetry_2
    _ccdc_geom_bond_type
    C278   C277      1.61238      .   S
    C278   H127      1.07349  1_554   S
    C278   H126      1.08281  1_554   S
    C278   C279      1.52462  1_554   S
    C281   C280      1.54301      .   S
    C281   O358      1.33024      .   S
    C281   O359      1.21487  1_554   S
    H121   C275      1.09746      .   S
    N322   C192      1.50119      .   S
    N322   C203      1.49751      .   S
    N322   C179      1.50924  1_554   S
    H120   C275      1.10229      .   S
    O365   C309      1.26960  1_554   S
    C293   H143      1.09840      .   S
    C293   C301      1.53702      .   S
    C293   C287      1.55387  1_554   S
    C293   C296      1.53366  1_554   S
    H83    C247      1.10264  1_554   S
    H147   C296      1.09917  1_554   S
    C246   H82       1.09628      .   S
    C246   C242      1.53844  1_554   S
    C246   C247      1.55426  1_554   S
    C246   C245      1.53638  1_554   S
    H80    C245      1.09978  1_554   S
    C192   C191      1.54493  1_565   S
    C192   H14       1.09837      .   S
    C192   H13       1.09283  1_564   S
    C280   C276      1.55938      .   S
    C280   C279      1.55426  1_554   S
    C280   H134      1.10267  1_554   S
    C191   H11       1.10092  1_655   S
    C191   H12       1.09957  1_554   S
    C191   C188      1.53380  1_644   S
    C275   C274      1.54990      .   S
    C275   C279      1.53822  1_554   S
    H160   C310      1.09569  1_545   S
    C96    O340      1.28353      .   S
    C96    C182      1.52918      .   S
    C96    O341      1.26985  1_554   S
    H81    C245      1.10140  1_554   S
    H161   C310      1.10069      .   S
    H148   C297      1.09281  1_554   S
    H162   C310      1.10075      .   S
    C182   C203      1.55243  1_455   S
    C182   H5        1.09951      .   S
    C182   C188      1.55379  1_554   S
    C310   O362      1.44010      .   S
    H24    C203      1.09604      .   S
    C203   H23       1.09827      .   S
    H139   C284      1.09715      .   S
    O351   C248      1.27435  1_564   S
    C284   C301      1.54281      .   S
    C284   C283      1.54862      .   S
    C284   N334      1.50999  1_554   S
    H22    C201      1.09027      .   S
    C301   H152      1.09793      .   S
    C301   H151      1.10121      .   S
    C277   H124      1.09949      .   S
    C277   H125      1.10019      .   S
    C277   N331      1.47999      .   S
    C276   H122      1.10023  1_455   S
    C276   N331      1.47775      .   S
    C276   H123      1.09768      .   S
    C274   H119      1.10010      .   S
    C274   N331      1.48020      .   S
    C274   C260      1.53866      .   S
    H144   C294      1.08631      .   S
    H19    C198      1.08921      .   S
    H135   O360      0.99100      .   S
    H138   C283      1.10516      .   S
    O353   C260      1.42692      .   S
    O353   H86       1.00655      .   S
    O362   C299      1.37041      .   S
    C201   C198      1.37186      .   S
    C201   C183      1.41883      .   S
    C283   O360      1.42525      .   S
    C283   C289      1.52239      .   S
    H103   C260      1.10529      .   S
    C260   C252      1.52428      .   S
    C198   C202      1.41528      .   S
    N320   C183      1.37413      .   S
    N320   C197      1.33622      .   S
    C294   C299      1.38450      .   S
    C294   C290      1.42098      .   S
    H49    C221      1.09209      .   S
    C299   C305      1.41862      .   S
    C183   C195      1.43870      .   S
    H18    C197      1.09058      .   S
    H118   C273      1.09872      .   S
    H52    C224      1.09801      .   S
    H117   C273      0.87633  1_545   S
    H108   C266      1.08499      .   S
    C289   C290      1.43095      .   S
    C289   C291      1.38390      .   S
    C197   C177      1.40144      .   S
    N325   C221      1.32899      .   S
    N325   C215      1.36759      .   S
    C290   C286      1.43700      .   S
    C221   C220      1.40753      .   S
    H85    C249      1.08921      .   S
    C273   H116      1.09467      .   S
    C273   O355      1.43073  1_565   S
    C202   O339      1.36485      .   S
    C202   C199      1.38685      .   S
    C252   C249      1.38535      .   S
    C252   C262      1.42962      .   S
    O339   C98       1.43325      .   S
    C305   H156      1.08946  1_565   S
    C305   C295      1.37176      .   S
    C224   C215      1.41998      .   S
    C224   C234      1.37236      .   S
    H141   C291      1.08648      .   S
    C249   C264      1.40106      .   S
    C195   C199      1.42179      .   S
    C195   C180      1.42958      .   S
    C215   C219      1.43835      .   S
    C291   C292      1.40651      .   S
    C266   C262      1.42177      .   S
    C266   C269      1.38422      .   S
    C199   H20       1.08499      .   S
    C220   H48       1.08649      .   S
    C220   C218      1.38382      .   S
    C286   C295      1.42011      .   S
    C286   N333      1.36869      .   S
    C262   C255      1.43866      .   S
    C177   C180      1.38531      .   S
    C177   H1        1.08908      .   S
    H63    C234      1.08928      .   S
    C295   H145      1.09034      .   S
    C234   C228      1.41858      .   S
    O355   C269      1.37606      .   S
    C180   C193      1.52392      .   S
    C269   C265      1.41885      .   S
    H28    C98       1.09469      .   S
    C98    H29       1.10185      .   S
    C98    H30       1.09873      .   S
    C292   N333      1.32917      .   S
    C292   H142      1.09301      .   S
    C219   C218      1.43094      .   S
    C219   C223      1.42084      .   S
    C264   H106      1.09073      .   S
    C264   N328      1.33650      .   S
    C218   C212      1.52230      .   S
    C255   N328      1.37409      .   S
    C255   C268      1.41878      .   S
    C228   C223      1.38447      .   S
    C228   O346      1.37030      .   S
    C223   H51       1.07992      .   S
    C265   C268      1.37184      .   S
    C265   H107      1.08926      .   S
    H2     O337      1.00660      .   S
    C193   H15       1.10533      .   S
    C193   O337      1.42706      .   S
    C193   C99       1.53876      .   S
    O344   C212      1.42524      .   S
    O344   H42       0.99092      .   S
    H35    C205      1.09775      .   S
    C212   H45       1.10538      .   S
    C212   C213      1.54849      .   S
    C268   H110      1.09028      .   S
    O346   C239      1.43942      .   S
    N323   C99       1.48025      .   S
    N323   C205      1.47786      .   S
    N323   C206      1.48012      .   S
    H31    C99       1.10011      .   S
    H58    C230      1.10114      .   S
    H111   C270      1.09912      .   S
    H34    C205      1.10030  1_455   S
    H59    C230      1.09798      .   S
    H37    C206      1.10019      .   S
    C99    C204      1.54988      .   S
    C205   C209      1.55923      .   S
    H89    C254      1.09924      .   S
    H36    C206      1.09948      .   S
    C206   C207      1.55399      .   S
    C230   C213      1.54282      .   S
    C230   C222      1.53695      .   S
    H95    C258      1.10082  1_655   S
    H175   C317      1.09634      .   S
    C213   H46       1.09693      .   S
    C213   N326      1.50996      .   S
    H102   C259      1.09828      .   S
    O367   C319      1.26871      .   S
    C270   H112      1.09610      .   S
    C270   C254      1.55223  1_455   S
    C270   N330      1.49667      .   S
    O342   C210      1.28367  1_545   S
    C239   H69       1.10073      .   S
    C239   H68       1.10099      .   S
    C239   H67       1.09599      .   S
    C254   C271      1.52839      .   S
    C254   C131      1.54680      .   S
    O356   C271      1.28238      .   S
    H55    C226      1.09213  1_565   S
    H174   C316      1.07356      .   S
    C271   O357      1.27053      .   S
    C204   H32       1.10228      .   S
    C204   H33       1.09606      .   S
    C204   C208      1.53817      .   S
    C258   C259      1.54488      .   S
    C258   C131      1.53016  1_455   S
    C258   H100      1.09893      .   S
    C209   C210      1.53016      .   S
    C209   H41       1.10269      .   S
    C209   C208      1.55429      .   S
    C259   N330      1.50113      .   S
    C259   H101      1.09204      .   S
    H173   C316      1.08275      .   S
    C317   C316      1.52474      .   S
    C317   C318      1.49826      .   S
    C317   C313      1.53812      .   S
    H54    C225      1.09893      .   S
    H50    C222      1.09841      .   S
    H176   C318      1.03781      .   S
    C222   C225      1.53366  1_545   S
    C222   C216      1.55358      .   S
    O349   C238      1.26976      .   S
    N330   C251      1.51011      .   S
    C210   O343      1.26963  1_565   S
    C207   C208      1.53632      .   S
    C207   H38       1.09966      .   S
    C207   H39       1.10074      .   S
    C316   C315      1.61207      .   S
    H168   C313      1.09597      .   S
    C319   C318      1.50899      .   S
    C319   O366      1.28620      .   S
    N326   C226      1.50111      .   S
    N326   C237      1.49698      .   S
    H167   C313      1.10232      .   S
    C131   H92       1.09945      .   S
    C131   C263      1.54535  1_655   S
    C318   C314      1.70998      .   S
    C208   H40       1.09636      .   S
    C226   C225      1.54512  1_545   S
    C226   H56       1.09830      .   S
    C225   H53       1.10078      .   S
    C313   C312      1.54982      .   S
    H113   C272      1.09619  1_565   S
    C238   O348      1.28357      .   S
    C238   C216      1.52918      .   S
    H114   C272      1.10110      .   S
    H115   C272      1.10075      .   S
    C216   C237      1.55240      .   S
    C216   H47       1.09957      .   S
    C272   O354      1.43872      .   S
    H66    C237      1.09605      .   S
    C237   H65       1.09819      .   S
    H88    C251      1.09727      .   S
    C251   C263      1.54294      .   S
    C251   C250      1.54839      .   S
    H64    C235      1.09025      .   S
    C263   H105      1.09828  1_455   S
    C263   H104      1.10128      .   S
    C315   H171      1.09953      .   S
    C315   H172      1.10002      .   S
    C315   N335      1.48014      .   S
    C314   H169      1.10026      .   S
    C314   N335      1.47835      .   S
    C314   H170      1.09855      .   S
    C312   H166      1.10010      .   S
    C312   N335      1.48023      .   S
    C312   C298      1.53861      .   S
    H93    C132      1.08660      .   S
    H61    C232      1.08924      .   S
    H84    O352      0.99180      .   S
    H87    C250      1.10515      .   S
    O361   C298      1.42702      .   S
    O361   H137      1.00669      .   S
    O354   C261      1.37126      .   S
    C235   C232      1.37171      .   S
    C235   C217      1.41873      .   S
    C250   O352      1.42522      .   S
    C250   C256      1.52223      .   S
    H150   C298      1.10536      .   S
    C298   C285      1.52424      .   S
    C232   C236      1.41890      .   S
    N324   C217      1.37408      .   S
    N324   C231      1.33630      .   S
    C132   C261      1.38449      .   S
    C132   C128      1.42108      .   S
    C261   C267      1.41866      .   S
    H7     C187      1.09284      .   S
    C217   C229      1.43843      .   S
    H60    C231      1.09057      .   S
    H165   C311      1.09865      .   S
    H10    C190      1.09092      .   S
    H155   C304      1.08492      .   S
    C256   C128      1.43094      .   S
    C256   C129      1.38388      .   S
    H164   C311      1.10185  1_565   S
    C231   C211      1.40093      .   S
    N321   C187      1.32912      .   S
    N321   C181      1.36876      .   S
    C128   C253      1.43682      .   S
    C187   C186      1.40656      .   S
    H136   C282      1.08921      .   S
    C311   H163      1.09472      .   S
    C311   O363      1.43360  1_545   S
    C236   O347      1.36413      .   S
    C236   C233      1.38427      .   S
    C285   C282      1.38535      .   S
    C285   C300      1.42961      .   S
    O347   C240      1.43355      .   S
    C267   H109      1.08951  1_545   S
    C267   C257      1.37251      .   S
    C190   C181      1.42028      .   S
    C190   C200      1.37253      .   S
    H90    C129      1.08650      .   S
    C229   C233      1.42194      .   S
    C229   C214      1.42994      .   S
    C282   C302      1.40108      .   S
    C129   C130      1.40649      .   S
    C181   C185      1.43692      .   S
    C304   C300      1.42184      .   S
    C304   C307      1.38433      .   S
    C233   H62       1.08504      .   S
    C253   C257      1.42032      .   S
    C253   N329      1.36875      .   S
    C186   H6        1.08651      .   S
    C186   C184      1.38381      .   S
    C211   C214      1.38568      .   S
    C211   H43       1.08958      .   S
    C300   C288      1.43866      .   S
    H21    C200      1.08932      .   S
    C257   H94       1.08953      .   S
    C200   C194      1.41718      .   S
    O363   C307      1.36431      .   S
    C214   C227      1.52421      .   S
    C307   C303      1.41888      .   S
    H70    C240      1.09474      .   S
    C240   H71       1.10182      .   S
    C240   H72       1.09762      .   S
    C130   N329      1.32908      .   S
    C130   H91       1.09297      .   S
    C185   C184      1.43088      .   S
    C185   C189      1.42065      .   S
    C302   H153      1.09071      .   S
    C302   N332      1.33652      .   S
    C184   C178      1.52213      .   S
    C288   N332      1.37407      .   S
    C288   C306      1.41885      .   S
    C194   C189      1.38468      .   S
    C194   O338      1.37176      .   S
    C189   H9        1.08685      .   S
    C303   C306      1.37177      .   S
    C303   H154      1.08900      .   S
    H44    O345      1.00664      .   S
    C227   H57       1.10534      .   S
    C227   O345      1.42700      .   S
    C227   C241      1.53853      .   S
    O336   C178      1.42548      .   S
    O336   H0        0.99154      .   S
    H77    C243      1.09769      .   S
    C178   H3        1.10521      .   S
    C178   C179      1.54802      .   S
    C306   H157      1.09037      .   S
    O338   C97       1.43950      .   S
    N327   C241      1.48023      .   S
    N327   C243      1.47792      .   S
    N327   C244      1.48013      .   S
    H73    C241      1.10005      .   S
    H16    C196      1.10120      .   S
    H158   C308      1.09826      .   S
    H76    C243      1.10000      .   S
    H17    C196      1.09876  1_455   S
    H79    C244      1.10052      .   S
    C241   C242      1.54928      .   S
    C243   C247      1.55928      .   S
    H78    C244      1.09948      .   S
    H140   C287      1.09955      .   S
    C244   C245      1.55368      .   S
    C196   C179      1.54279      .   S
    C196   C188      1.53695  1_655   S
    H146   C296      1.10078      .   S
    H133   C279      1.09640      .   S
    C179   H4        1.09722      .   S
    H149   C297      1.09787      .   S
    C308   H159      1.09607      .   S
    C308   C287      1.55237      .   S
    C308   N334      1.49692      .   S
    O350   C248      1.28312  1_565   S
    C97    H27       1.10064      .   S
    C97    H26       1.10102      .   S
    C97    H25       1.09598      .   S
    C287   C309      1.52963      .   S
    O364   C309      1.28374      .   S
    C242   H74       1.10249      .   S
    C242   H75       1.09640      .   S
    C296   C297      1.54483      .   S
    C247   C248      1.53017      .   S
    C297   N334      1.50113      .   S
    H8     C188      1.09844      .   S
