# CIF file generated by openbabel 2.4.90, see http://openbabel.sf.net
data_I
_chemical_name_common ''
_cell_length_a 13.971
_cell_length_b 15.661
_cell_length_c 19.606
_cell_angle_alpha 89.992
_cell_angle_beta 90.005
_cell_angle_gamma 90.014
_space_group_name_H-M_alt 'P 1'
_space_group_name_Hall 'P 1'
loop_
    _symmetry_equiv_pos_as_xyz
    x,y,z
loop_
    _atom_site_label
    _atom_site_type_symbol
    _atom_site_fract_x
    _atom_site_fract_y
    _atom_site_fract_z
    _atom_site_occupancy
    Zr0     Zr   0.69089   0.86001   0.02850   1.000
    Zr1     Zr   0.80967   0.14076   0.52817   1.000
    Zr2     Zr   0.30922   0.36028   0.47142   1.000
    Zr3     Zr   0.19068   0.63984   0.97150   1.000
    N4      N    0.07668   0.30159   0.59042   1.000
    O5      O    0.15061   0.33680   0.53692   1.000
    N6      N    0.19399   0.25340   0.15079   1.000
    O7      O    0.24859   0.29659   0.28208   1.000
    N8      N    0.69397   0.24595   0.84891   1.000
    O9      O    0.74878   0.20345   0.71761   1.000
    N10     N    0.92353   0.80090   0.90949   1.000
    O11     O    0.84960   0.83619   0.96300   1.000
    N12     N    0.30602   0.74599   0.65081   1.000
    O13     O    0.25130   0.70315   0.78213   1.000
    N14     N    0.57609   0.19925   0.40938   1.000
    O15     O    0.65043   0.16416   0.46283   1.000
    N16     N    0.42384   0.69892   0.09059   1.000
    O17     O    0.34963   0.66362   0.03707   1.000
    N18     N    0.80596   0.75412   0.34915   1.000
    O19     O    0.75142   0.79680   0.21786   1.000
    O20     O    0.67967   0.08465   0.93236   1.000
    O21     O    0.53671   0.75363   0.04910   1.000
    O22     O    0.32040   0.58479   0.56744   1.000
    O23     O    0.46328   0.25395   0.45092   1.000
    O24     O    0.03653   0.74619   0.95103   1.000
    O25     O    0.17956   0.41495   0.06743   1.000
    O26     O    0.82048   0.91554   0.43246   1.000
    O27     O    0.96354   0.24732   0.54882   1.000
loop_
    _geom_bond_atom_site_label_1
    _geom_bond_atom_site_label_2
    _geom_bond_distance
    _geom_bond_site_symmetry_2
    _ccdc_geom_bond_type
    N4     O5        1.57187      .   S
    Zr2    O5        2.58736      .   S
    N6     O7        2.76855      .   S
    Zr2    O7        3.93614      .   S
    N8     O9        2.76718      .   S
    Zr1    O9        3.93495      .   S
    N10    O11       1.57274      .   S
    Zr0    O11       2.58953  1_554   S
    N12    O13       2.76826      .   S
    Zr3    O13       3.93493      .   S
    N14    O15       1.57449      .   S
    Zr1    O15       2.59306      .   S
    N16    O17       1.57525      .   S
    Zr3    O17       2.59266  1_556   S
    N18    O19       2.76625      .   S
    Zr0    O19       3.93419      .   S
    Zr0    O20       3.99411  1_564   S
    N8     O20       3.01613      .   S
    Zr0    O21       2.75262      .   S
    N16    O21       1.97023      .   S
    Zr2    O22       3.99164      .   S
    N12    O22       3.01447      .   S
    Zr2    O23       2.75127      .   S
    N14    O23       1.97039      .   S
    Zr3    O24       2.75224      .   S
    N10    O24       1.97226  1_655   S
    Zr3    O25       3.99554  1_556   S
    N6     O25       3.01865      .   S
    Zr1    O26       3.99852  1_545   S
    N18    O26       3.01664      .   S
    Zr1    O27       2.75115      .   S
    N4     O27       1.97109  1_455   S
