# CIF file generated by openbabel 2.4.90, see http://openbabel.sf.net
data_I
_chemical_name_common ''
_cell_length_a 14.648
_cell_length_b 15.577
_cell_length_c 17.021
_cell_angle_alpha 89.998
_cell_angle_beta 89.997
_cell_angle_gamma 116.496
_space_group_name_H-M_alt 'P 1'
_space_group_name_Hall 'P 1'
loop_
    _symmetry_equiv_pos_as_xyz
    x,y,z
loop_
    _atom_site_label
    _atom_site_type_symbol
    _atom_site_fract_x
    _atom_site_fract_y
    _atom_site_fract_z
    _atom_site_occupancy
    Cd0     Cd   0.12706   0.27316   0.36542   1.000
    Cd1     Cd   0.65569   0.28811   0.86876   1.000
    Cd2     Cd   0.37288   0.22683   0.86542   1.000
    Cd3     Cd   0.15573   0.78809   0.63127   1.000
    Cd4     Cd   0.87288   0.72682   0.63457   1.000
    Cd5     Cd   0.34425   0.71187   0.13124   1.000
    Cd6     Cd   0.62707   0.77315   0.13457   1.000
    H7      H    0.00000   0.31108   0.47688   1.000
    H8      H    0.96388   0.18693   0.48197   1.000
    Cd9     Cd   0.84422   0.21189   0.36870   1.000
    H10     H    0.48139   0.18894   0.97689   1.000
    H11     H    0.53599   0.31309   0.98198   1.000
    H12     H    0.98144   0.68890   0.52311   1.000
    H13     H    0.03606   0.81306   0.51802   1.000
    H14     H    0.51856   0.81105   0.02310   1.000
    H15     H    0.46395   0.68690   0.01801   1.000
    O16     O    0.98897   0.24737   0.44638   1.000
    O17     O    0.51091   0.25266   0.94640   1.000
    O18     O    0.01097   0.75262   0.55361   1.000
    O19     O    0.48903   0.74733   0.05360   1.000
loop_
    _geom_bond_atom_site_label_1
    _geom_bond_atom_site_label_2
    _geom_bond_distance
    _geom_bond_site_symmetry_2
    _ccdc_geom_bond_type
    H15    O19       1.03907      .   S
    H14    O19       1.02890      .   S
    O16    H7        1.06657  1_655   S
    O16    H8        1.03906      .   S
    H13    O18       1.03906      .   S
    H12    O18       1.02888  1_655   S
    O17    H10       1.02880      .   S
    O17    H11       1.03900      .   S
    O16    Cd9       2.34615      .   S
    O16    Cd0       2.32946  1_655   S
    O17    Cd1       2.34593      .   S
    O17    Cd2       2.32905      .   S
    O18    Cd3       2.34600      .   S
    O18    Cd4       2.32942  1_455   S
    O19    Cd5       2.34588      .   S
    O19    Cd6       2.32900      .   S
