# CIF file generated by openbabel 2.4.90, see http://openbabel.sf.net
data_I
_chemical_name_common ''
_cell_length_a 14.648
_cell_length_b 15.577
_cell_length_c 17.021
_cell_angle_alpha 89.998
_cell_angle_beta 89.997
_cell_angle_gamma 116.496
_space_group_name_H-M_alt 'P 1'
_space_group_name_Hall 'P 1'
loop_
    _symmetry_equiv_pos_as_xyz
    x,y,z
loop_
    _atom_site_label
    _atom_site_type_symbol
    _atom_site_fract_x
    _atom_site_fract_y
    _atom_site_fract_z
    _atom_site_occupancy
    N0      N    0.49740   0.25297   0.52649   1.000
    N1      N    0.99741   0.75295   0.97307   1.000
    N2      N    0.00254   0.24703   0.02649   1.000
    N3      N    0.50255   0.74702   0.47350   1.000
    N4      N    0.03428   0.27180   0.72047   1.000
    N5      N    0.53187   0.78584   0.77953   1.000
    N6      N    0.96552   0.72818   0.27951   1.000
    N7      N    0.46567   0.22820   0.22044   1.000
    Zr8     Zr   0.01142   0.75390   0.57212   1.000
    O9      O    0.19687   0.77870   0.64796   1.000
    O10     O    0.17898   0.75128   0.55094   1.000
    O11     O    0.17741   0.90539   0.56673   1.000
    O12     O    0.83910   0.75321   0.55204   1.000
    O13     O    0.83949   0.74775   0.65075   1.000
    O14     O    0.83811   0.60295   0.56829   1.000
    Zr15    Zr   0.51137   0.25393   0.92789   1.000
    O16     O    0.67894   0.25131   0.94907   1.000
    O17     O    0.69744   0.27521   0.85204   1.000
    O18     O    0.67738   0.40541   0.93317   1.000
    O19     O    0.49237   0.39984   0.86950   1.000
    O20     O    0.33908   0.25323   0.94796   1.000
    O21     O    0.33808   0.10296   0.93160   1.000
    O22     O    0.34008   0.24425   0.84925   1.000
    Zr23    Zr   0.48857   0.74606   0.07210   1.000
    O24     O    0.66186   0.89702   0.06829   1.000
    O25     O    0.65983   0.75573   0.15074   1.000
    O26     O    0.66087   0.74676   0.05192   1.000
    O27     O    0.32257   0.59458   0.06672   1.000
    O28     O    0.32100   0.74868   0.05081   1.000
    O29     O    0.30247   0.72478   0.14795   1.000
    Zr30    Zr   0.98483   0.24609   0.42787   1.000
    O31     O    0.82069   0.09459   0.43325   1.000
    O32     O    0.80062   0.22480   0.35202   1.000
    O33     O    0.81912   0.24870   0.44905   1.000
    O34     O    0.15999   0.39704   0.43169   1.000
    O35     O    0.15800   0.25575   0.34923   1.000
    O36     O    0.15899   0.24677   0.44795   1.000
    O37     O    0.51562   0.12285   0.86653   1.000
    O38     O    0.48024   0.60023   0.13278   1.000
    O39     O    0.48372   0.88065   0.13346   1.000
    O40     O    0.01625   0.61932   0.63348   1.000
    O41     O    0.01974   0.89974   0.63279   1.000
    O42     O    0.97832   0.10024   0.36719   1.000
    O43     O    0.98181   0.38066   0.36650   1.000
loop_
    _geom_bond_atom_site_label_1
    _geom_bond_atom_site_label_2
    _geom_bond_distance
    _geom_bond_site_symmetry_2
    _ccdc_geom_bond_type
    Zr8    O9        2.87390      .   S
    N5     O9        5.34979      .   S
    Zr8    O10       2.49899      .   S
    N3     O10       4.94838      .   S
    Zr8    O11       2.52372      .   S
    N0     O11       5.39523  1_545   S
    Zr8    O12       2.54240  1_455   S
    N3     O12       5.06715      .   S
    Zr8    O13       2.81545  1_455   S
    N5     O13       5.27701      .   S
    Zr8    O14       2.57912  1_455   S
    N0     O14       5.55500      .   S
    Zr15   O16       2.49919      .   S
    N2     O16       4.94886  1_454   S
    Zr15   O17       2.89801      .   S
    N4     O17       5.44021  1_455   S
    Zr15   O18       2.52372      .   S
    N1     O18       5.39460      .   S
    Zr15   O19       2.60686      .   S
    N5     O19       5.97733      .   S
    Zr15   O20       2.54202      .   S
    N2     O20       5.06673  1_554   S
    Zr15   O21       2.57897      .   S
    N1     O21       5.55416  1_665   S
    Zr15   O22       2.78804      .   S
    N4     O22       5.17389      .   S
    Zr23   O24       2.57900      .   S
    N2     O24       5.55487  1_445   S
    Zr23   O25       2.78756      .   S
    N6     O25       5.17237      .   S
    Zr23   O26       2.54232      .   S
    N1     O26       5.06816  1_556   S
    Zr23   O27       2.52378      .   S
    N2     O27       5.39529      .   S
    Zr23   O28       2.49944      .   S
    N1     O28       4.95026  1_656   S
    Zr23   O29       2.89844      .   S
    N6     O29       5.44156  1_655   S
    Zr30   O31       2.50902      .   S
    N3     O31       5.38388  1_565   S
    Zr30   O32       2.87390      .   S
    N7     O32       5.41520      .   S
    Zr30   O33       2.47215      .   S
    N0     O33       4.92225      .   S
    Zr30   O34       2.59486  1_655   S
    N3     O34       5.56754      .   S
    Zr30   O35       2.81200  1_655   S
    N7     O35       5.19859      .   S
    Zr30   O36       2.56929  1_655   S
    N0     O36       5.09332      .   S
    N5     O37       5.56082  1_565   S
    Zr15   O37       2.31884      .   S
    Zr23   O38       2.44830      .   S
    N7     O38       5.89504      .   S
    Zr23   O39       2.37149      .   S
    N7     O39       5.73137  1_545   S
    Zr8    O40       2.37121      .   S
    N4     O40       5.73082      .   S
    Zr8    O41       2.44861      .   S
    N4     O41       5.89566  1_545   S
    N6     O42       5.90604  1_565   S
    Zr30   O42       2.45846      .   S
    N6     O43       5.71890      .   S
    Zr30   O43       2.36009      .   S
