# CIF file generated by openbabel 2.4.90, see http://openbabel.sf.net
data_I
_chemical_name_common ''
_cell_length_a 14.648
_cell_length_b 15.577
_cell_length_c 17.021
_cell_angle_alpha 89.998
_cell_angle_beta 89.997
_cell_angle_gamma 116.496
_space_group_name_H-M_alt 'P 1'
_space_group_name_Hall 'P 1'
loop_
    _symmetry_equiv_pos_as_xyz
    x,y,z
loop_
    _atom_site_label
    _atom_site_type_symbol
    _atom_site_fract_x
    _atom_site_fract_y
    _atom_site_fract_z
    _atom_site_occupancy
    N0      N    0.49740   0.25297   0.52649   1.000
    N1      N    0.99741   0.75295   0.97307   1.000
    N2      N    0.00254   0.24703   0.02649   1.000
    N3      N    0.50255   0.74702   0.47350   1.000
    N4      N    0.03428   0.27180   0.72047   1.000
    N5      N    0.53187   0.78584   0.77953   1.000
    N6      N    0.96552   0.72818   0.27951   1.000
    N7      N    0.46567   0.22820   0.22044   1.000
    Zr8     Zr   0.01142   0.75390   0.57212   1.000
    O9      O    0.19687   0.77870   0.64796   1.000
    O10     O    0.17898   0.75128   0.55094   1.000
    O11     O    0.04334   0.62319   0.63113   1.000
    O12     O    0.04647   0.90317   0.63508   1.000
    O13     O    0.17741   0.90539   0.56673   1.000
    O14     O    0.83910   0.75321   0.55204   1.000
    O15     O    0.83949   0.74775   0.65075   1.000
    O16     O    0.99300   0.89631   0.63050   1.000
    O17     O    0.98916   0.61546   0.63582   1.000
    O18     O    0.83811   0.60295   0.56829   1.000
    Zr19    Zr   0.51137   0.25393   0.92789   1.000
    O20     O    0.54270   0.12671   0.86889   1.000
    O21     O    0.67894   0.25131   0.94907   1.000
    O22     O    0.69744   0.27521   0.85204   1.000
    O23     O    0.67738   0.40541   0.93317   1.000
    O24     O    0.49237   0.39984   0.86950   1.000
    O25     O    0.48854   0.11899   0.86417   1.000
    O26     O    0.33908   0.25323   0.94796   1.000
    O27     O    0.33808   0.10296   0.93160   1.000
    O28     O    0.34008   0.24425   0.84925   1.000
    Zr29    Zr   0.48857   0.74606   0.07210   1.000
    O30     O    0.66186   0.89702   0.06829   1.000
    O31     O    0.51080   0.88451   0.13581   1.000
    O32     O    0.50697   0.60365   0.13048   1.000
    O33     O    0.65983   0.75573   0.15074   1.000
    O34     O    0.66087   0.74676   0.05192   1.000
    O35     O    0.45664   0.87679   0.13111   1.000
    O36     O    0.32257   0.59458   0.06672   1.000
    O37     O    0.32100   0.74868   0.05081   1.000
    O38     O    0.45350   0.59680   0.13507   1.000
    O39     O    0.30247   0.72478   0.14795   1.000
    Zr40    Zr   0.98483   0.24609   0.42787   1.000
    O41     O    0.95159   0.09681   0.36490   1.000
    O42     O    0.95471   0.37679   0.36884   1.000
    O43     O    0.82069   0.09459   0.43325   1.000
    O44     O    0.80062   0.22480   0.35202   1.000
    O45     O    0.81912   0.24870   0.44905   1.000
    O46     O    0.00890   0.38452   0.36416   1.000
    O47     O    0.15999   0.39704   0.43169   1.000
    O48     O    0.15800   0.25575   0.34923   1.000
    O49     O    0.00506   0.10367   0.36949   1.000
    O50     O    0.15899   0.24677   0.44795   1.000
    Zr51    Zr   0.60181   0.37810   0.70000   1.000
loop_
    _geom_bond_atom_site_label_1
    _geom_bond_atom_site_label_2
    _geom_bond_distance
    _geom_bond_site_symmetry_2
    _ccdc_geom_bond_type
    Zr8    O9        2.87390      .   S
    N5     O9        5.34979      .   S
    Zr8    O10       2.49899      .   S
    N3     O10       4.94838      .   S
    Zr8    O11       2.49456      .   S
    N4     O11       5.62509      .   S
    Zr8    O12       2.39872      .   S
    N4     O12       6.00257  1_545   S
    Zr8    O13       2.52372      .   S
    N0     O13       5.39523  1_545   S
    Zr8    O14       2.54240  1_455   S
    N3     O14       5.06715      .   S
    Zr8    O15       2.81545  1_455   S
    N5     O15       5.27701      .   S
    Zr8    O16       2.55259  1_455   S
    N4     O16       5.81077  1_445   S
    Zr8    O17       2.30329  1_455   S
    N4     O17       5.85881  1_455   S
    Zr8    O18       2.57912  1_455   S
    N0     O18       5.55500      .   S
    Zr19   O20       2.44080      .   S
    N5     O20       5.45714  1_565   S
    Zr19   O21       2.49919      .   S
    N2     O21       4.94886  1_454   S
    Zr19   O22       2.89801      .   S
    N4     O22       5.44021  1_455   S
    Zr19   O23       2.52372      .   S
    N1     O23       5.39460      .   S
    Zr19   O24       2.60686      .   S
    N5     O24       5.97733      .   S
    Zr19   O25       2.25369      .   S
    N5     O25       5.68749  1_565   S
    Zr19   O26       2.54202      .   S
    N2     O26       5.06673  1_554   S
    Zr19   O27       2.57897      .   S
    N1     O27       5.55416  1_665   S
    Zr19   O28       2.78804      .   S
    N4     O28       5.17389      .   S
    Zr29   O30       2.57900      .   S
    N2     O30       5.55487  1_445   S
    Zr29   O31       2.30362      .   S
    N7     O31       5.85931  1_545   S
    Zr29   O32       2.55225      .   S
    N7     O32       5.81016      .   S
    Zr29   O33       2.78756      .   S
    N6     O33       5.17237      .   S
    Zr29   O34       2.54232      .   S
    N1     O34       5.06816  1_556   S
    Zr29   O35       2.49476      .   S
    N7     O35       5.62568  1_545   S
    Zr29   O36       2.52378      .   S
    N2     O36       5.39529      .   S
    Zr29   O37       2.49944      .   S
    N1     O37       4.95026  1_656   S
    Zr29   O38       2.39843      .   S
    N7     O38       6.00192      .   S
    Zr29   O39       2.89844      .   S
    N6     O39       5.44156  1_655   S
    Zr40   O41       2.40472      .   S
    N6     O41       6.01432  1_565   S
    Zr40   O42       2.48008      .   S
    N6     O42       5.61459      .   S
    Zr40   O43       2.50902      .   S
    N3     O43       5.38388  1_565   S
    Zr40   O44       2.87390      .   S
    N7     O44       5.41520      .   S
    Zr40   O45       2.47215      .   S
    N0     O45       4.92225      .   S
    Zr40   O46       2.29607  1_655   S
    N6     O46       5.84557  1_655   S
    Zr40   O47       2.59486  1_655   S
    N3     O47       5.56754      .   S
    Zr40   O48       2.81200  1_655   S
    N7     O48       5.19859      .   S
    Zr40   O49       2.56586  1_655   S
    N6     O49       5.81969  1_665   S
    Zr40   O50       2.56929  1_655   S
    N0     O50       5.09332      .   S
