# CIF file generated by openbabel 2.4.90, see http://openbabel.sf.net
data_I
_chemical_name_common ''
_cell_length_a 14.648
_cell_length_b 15.577
_cell_length_c 17.021
_cell_angle_alpha 89.998
_cell_angle_beta 89.997
_cell_angle_gamma 116.496
_space_group_name_H-M_alt 'P 1'
_space_group_name_Hall 'P 1'
loop_
    _symmetry_equiv_pos_as_xyz
    x,y,z
loop_
    _atom_site_label
    _atom_site_type_symbol
    _atom_site_fract_x
    _atom_site_fract_y
    _atom_site_fract_z
    _atom_site_occupancy
    Zr0     Zr   0.84422   0.21189   0.36870   1.000
    Zr1     Zr   0.12706   0.27316   0.36542   1.000
    Zr2     Zr   0.65569   0.28811   0.86876   1.000
    Zr3     Zr   0.37288   0.22683   0.86542   1.000
    Zr4     Zr   0.15573   0.78809   0.63127   1.000
    Zr5     Zr   0.87288   0.72682   0.63457   1.000
    Zr6     Zr   0.34425   0.71187   0.13124   1.000
    Zr7     Zr   0.62707   0.77315   0.13457   1.000
    Zr8     Zr   0.00000   0.31108   0.47688   1.000
    Zr9     Zr   0.96388   0.18693   0.48197   1.000
    Zr10    Zr   0.48139   0.18894   0.97689   1.000
    Zr11    Zr   0.53599   0.31309   0.98198   1.000
    Zr12    Zr   0.98144   0.68890   0.52311   1.000
    Zr13    Zr   0.03606   0.81306   0.51802   1.000
    Zr14    Zr   0.51856   0.81105   0.02310   1.000
    Zr15    Zr   0.46395   0.68690   0.01801   1.000
    Zr16    Zr   0.98897   0.24737   0.44638   1.000
    Zr17    Zr   0.60181   0.37810   0.70000   1.000
    Zr18    Zr   0.51091   0.25266   0.94640   1.000
    Zr19    Zr   0.01097   0.75262   0.55361   1.000
    Zr20    Zr   0.48903   0.74733   0.05360   1.000
    O21     O    0.47649   0.71711   0.03580   1.000
    O22     O    0.50379   0.77919   0.03835   1.000
    O23     O    0.99449   0.27923   0.46163   1.000
    O24     O    0.97643   0.21715   0.46417   1.000
    O25     O    0.02352   0.78284   0.53582   1.000
    O26     O    0.99621   0.72076   0.53836   1.000
    O27     O    0.49615   0.22080   0.96164   1.000
    O28     O    0.52345   0.28287   0.96419   1.000
    O29     O    0.91660   0.22963   0.40754   1.000
    O30     O    0.05802   0.26026   0.40590   1.000
    O31     O    0.58330   0.27038   0.90758   1.000
    O32     O    0.44190   0.23974   0.90591   1.000
    O33     O    0.08335   0.77036   0.59244   1.000
    O34     O    0.94193   0.73972   0.59409   1.000
    O35     O    0.41664   0.72960   0.09242   1.000
    O36     O    0.55805   0.76024   0.09408   1.000
    N37     N    0.49740   0.25297   0.52649   1.000
    O38     O    0.65341   0.25132   0.47022   1.000
    O39     O    0.34340   0.05688   0.56135   1.000
    O40     O    0.66479   0.45200   0.56447   1.000
    O41     O    0.33316   0.24746   0.46802   1.000
    N42     N    0.99741   0.75295   0.97307   1.000
    O43     O    0.15343   0.75130   0.02952   1.000
    O44     O    0.16479   0.95199   0.93531   1.000
    O45     O    0.84338   0.55689   0.93844   1.000
    O46     O    0.83317   0.74745   0.03173   1.000
    N47     N    0.00254   0.24703   0.02649   1.000
    O48     O    0.83515   0.04799   0.06447   1.000
    O49     O    0.15656   0.44310   0.06134   1.000
    O50     O    0.84651   0.24869   0.97025   1.000
    O51     O    0.16678   0.25253   0.96803   1.000
    N52     N    0.50255   0.74702   0.47350   1.000
    O53     O    0.34654   0.74867   0.52976   1.000
    O54     O    0.66679   0.75252   0.53197   1.000
    O55     O    0.33515   0.54799   0.43552   1.000
    O56     O    0.65655   0.94310   0.43864   1.000
    N57     N    0.03428   0.27180   0.72047   1.000
    O58     O    0.16878   0.23457   0.77062   1.000
    O59     O    0.88351   0.29649   0.77620   1.000
    O60     O    0.08153   0.05244   0.69805   1.000
    O61     O    0.07527   0.49248   0.69015   1.000
    O62     O    0.96691   0.47702   0.69953   1.000
    O63     O    0.97458   0.03873   0.68888   1.000
    N64     N    0.53187   0.78584   0.77953   1.000
    O65     O    0.38232   0.80350   0.72381   1.000
    O66     O    0.47337   0.54576   0.81111   1.000
    O67     O    0.57402   0.99949   0.80988   1.000
    O68     O    0.46571   0.98405   0.80046   1.000
    O69     O    0.66757   0.74159   0.72938   1.000
    N70     N    0.96552   0.72818   0.27951   1.000
    O71     O    0.03296   0.52296   0.30045   1.000
    O72     O    0.02529   0.96125   0.31111   1.000
    O73     O    0.91834   0.94754   0.30193   1.000
    O74     O    0.92460   0.50750   0.30980   1.000
    O75     O    0.83110   0.76541   0.22937   1.000
    O76     O    0.11636   0.70349   0.22379   1.000
    N77     N    0.46567   0.22820   0.22044   1.000
    O78     O    0.41843   0.44753   0.19803   1.000
    O79     O    0.42471   0.00751   0.19011   1.000
    O80     O    0.53303   0.02296   0.19952   1.000
    O81     O    0.52537   0.46125   0.18886   1.000
    O82     O    0.33117   0.26542   0.27060   1.000
    O83     O    0.61642   0.20351   0.27616   1.000
loop_
    _geom_bond_atom_site_label_1
    _geom_bond_atom_site_label_2
    _geom_bond_distance
    _geom_bond_site_symmetry_2
    _ccdc_geom_bond_type
    Zr15   O21       0.51954      .   S
    Zr20   O21       0.51954      .   S
    Zr14   O22       0.51445      .   S
    Zr20   O22       0.51445      .   S
    Zr16   O23       0.53329      .   S
    Zr8    O23       0.53329  1_455   S
    Zr16   O24       0.51953      .   S
    Zr9    O24       0.51953      .   S
    Zr13   O25       0.51953      .   S
    Zr19   O25       0.51953      .   S
    Zr12   O26       0.51444      .   S
    Zr19   O26       0.51444  1_455   S
    Zr18   O27       0.51440      .   S
    Zr10   O27       0.51440      .   S
    Zr18   O28       0.51950      .   S
    Zr11   O28       0.51950      .   S
    Zr16   O29       1.17307      .   S
    Zr0    O29       1.17307      .   S
    Zr16   O30       1.16473  1_655   S
    Zr1    O30       1.16473      .   S
    Zr18   O31       1.17297      .   S
    Zr2    O31       1.17297      .   S
    Zr18   O32       1.16453      .   S
    Zr3    O32       1.16453      .   S
    Zr19   O33       1.17300      .   S
    Zr4    O33       1.17300      .   S
    Zr19   O34       1.16471  1_455   S
    Zr5    O34       1.16471      .   S
    Zr20   O35       1.17294      .   S
    Zr6    O35       1.17294      .   S
    Zr20   O36       1.16450      .   S
    Zr7    O36       1.16450      .   S
    N37    O38       2.48843      .   S
    Zr0    O38       3.56455      .   S
    N37    O39       2.93632      .   S
    Zr4    O39       4.02905  1_565   S
    N37    O40       3.04292      .   S
    Zr5    O40       4.17122      .   S
    N37    O41       2.56932      .   S
    Zr1    O41       3.66101      .   S
    N42    O43       2.48997  1_656   S
    Zr6    O43       3.56646      .   S
    N42    O44       3.04209  1_655   S
    Zr3    O44       4.17010  1_545   S
    N42    O45       2.93556      .   S
    Zr2    O45       4.02793      .   S
    N42    O46       2.57056  1_556   S
    Zr7    O46       3.66281      .   S
    N47    O48       3.04289  1_455   S
    Zr7    O48       4.17114  1_565   S
    N47    O49       2.93630      .   S
    Zr6    O49       4.02901      .   S
    N47    O50       2.48863  1_454   S
    Zr2    O50       3.56457      .   S
    N47    O51       2.56928  1_554   S
    Zr3    O51       3.66095      .   S
    N52    O53       2.48840      .   S
    Zr4    O53       3.56443      .   S
    N52    O54       2.56933      .   S
    Zr5    O54       3.66102      .   S
    N52    O55       3.04294      .   S
    Zr1    O55       4.17125      .   S
    N52    O56       2.93633      .   S
    Zr0    O56       4.02911  1_545   S
    N57    O58       2.44242      .   S
    Zr3    O58       3.44659      .   S
    N57    O59       2.58513  1_455   S
    Zr2    O59       3.63956      .   S
    N57    O60       3.79599      .   S
    Zr4    O60       4.83977  1_565   S
    N57    O61       3.25607      .   S
    Zr4    O61       4.33063      .   S
    N57    O62       3.75962  1_455   S
    Zr5    O62       4.80030      .   S
    N57    O63       3.37662  1_455   S
    Zr5    O63       4.49687  1_565   S
    N64    O65       2.51224      .   S
    Zr4    O65       3.58397      .   S
    N64    O66       3.48567      .   S
    Zr3    O66       4.60173      .   S
    N64    O67       3.14494      .   S
    Zr2    O67       4.22483  1_545   S
    N64    O68       3.64256      .   S
    Zr3    O68       4.68640  1_545   S
    N64    O69       2.52534      .   S
    Zr5    O69       3.50980      .   S
    N70    O71       3.76032  1_655   S
    Zr1    O71       4.80102      .   S
    N70    O72       3.37640  1_655   S
    Zr1    O72       4.49674  1_545   S
    N70    O73       3.79536      .   S
    Zr0    O73       4.83912  1_545   S
    N70    O74       3.25632      .   S
    Zr0    O74       4.33085      .   S
    N70    O75       2.44139      .   S
    Zr7    O75       3.44561      .   S
    N70    O76       2.58605  1_655   S
    Zr6    O76       3.64042      .   S
    N77    O78       3.79563      .   S
    Zr6    O78       4.83936      .   S
    N77    O79       3.25630      .   S
    Zr6    O79       4.33111  1_565   S
    N77    O80       3.75976      .   S
    Zr7    O80       4.80049  1_565   S
    N77    O81       3.37635      .   S
    Zr7    O81       4.49660      .   S
    N77    O82       2.44242      .   S
    Zr1    O82       3.44661      .   S
    N77    O83       2.58487      .   S
    Zr0    O83       3.63921      .   S
