# CIF file generated by openbabel 2.4.90, see http://openbabel.sf.net
data_I
_chemical_name_common ''
_cell_length_a 18.577
_cell_length_b 18.583
_cell_length_c 18.583
_cell_angle_alpha 90.001
_cell_angle_beta 90
_cell_angle_gamma 90
_space_group_name_H-M_alt 'P 1'
_space_group_name_Hall 'P 1'
loop_
    _symmetry_equiv_pos_as_xyz
    x,y,z
loop_
    _atom_site_label
    _atom_site_type_symbol
    _atom_site_fract_x
    _atom_site_fract_y
    _atom_site_fract_z
    _atom_site_occupancy
    H0      H    0.77180   0.77180   0.60829   1.000
    H1      H    0.22819   0.22818   0.60828   1.000
    H2      H    0.22818   0.77180   0.39172   1.000
    H3      H    0.77178   0.22820   0.39171   1.000
    H4      H    0.60823   0.77180   0.77181   1.000
    H5      H    0.60821   0.22820   0.22810   1.000
    H6      H    0.39176   0.22822   0.77181   1.000
    H7      H    0.39174   0.77182   0.22818   1.000
    H8      H    0.77180   0.60827   0.77100   1.000
    H9      H    0.22817   0.60829   0.22820   1.000
    H10     H    0.77183   0.39168   0.22810   1.000
    H11     H    0.22813   0.39169   0.77181   1.000
    H12     H    0.77179   0.77176   0.39171   1.000
    H13     H    0.22821   0.22817   0.39170   1.000
    H14     H    0.77185   0.22817   0.60828   1.000
    H15     H    0.22816   0.77185   0.60832   1.000
    H16     H    0.77182   0.60824   0.22819   1.000
    H17     H    0.22821   0.60828   0.77178   1.000
    H18     H    0.22820   0.39170   0.22819   1.000
    H19     H    0.77179   0.39173   0.77175   1.000
    H20     H    0.60826   0.77177   0.22815   1.000
    H21     H    0.60826   0.22817   0.77178   1.000
    H22     H    0.39175   0.77184   0.77180   1.000
    H23     H    0.39176   0.22816   0.22814   1.000
    C24     C    0.74860   0.34315   0.74857   1.000
    C25     C    0.65684   0.74857   0.25130   1.000
    C26     C    0.65684   0.25138   0.74858   1.000
    C27     C    0.34316   0.74864   0.74863   1.000
    C28     C    0.78001   0.68681   0.68682   1.000
    C29     C    0.21995   0.31316   0.68682   1.000
    C30     C    0.21996   0.68682   0.31318   1.000
    C31     C    0.78002   0.31316   0.31316   1.000
    C32     C    0.68679   0.78001   0.68682   1.000
    C33     C    0.68678   0.21998   0.31317   1.000
    C34     C    0.31319   0.21998   0.68680   1.000
    C35     C    0.31318   0.78003   0.31317   1.000
    C36     C    0.68679   0.68681   0.78000   1.000
    C37     C    0.31318   0.68683   0.21998   1.000
    C38     C    0.68680   0.31316   0.21995   1.000
    C39     C    0.31316   0.31317   0.78003   1.000
    C40     C    0.68680   0.77998   0.31315   1.000
    C41     C    0.31321   0.21995   0.31314   1.000
    C42     C    0.68683   0.21995   0.68680   1.000
    C43     C    0.31318   0.78006   0.68685   1.000
    C44     C    0.78002   0.68678   0.31318   1.000
    C45     C    0.21998   0.68684   0.68682   1.000
    C46     C    0.22000   0.31316   0.31310   1.000
    C47     C    0.78003   0.31317   0.68600   1.000
    C48     C    0.68682   0.68678   0.21995   1.000
    C49     C    0.68680   0.31318   0.77998   1.000
    C50     C    0.31319   0.68685   0.78003   1.000
    C51     C    0.31320   0.31316   0.21995   1.000
    C52     C    0.74860   0.74860   0.65685   1.000
    C53     C    0.25139   0.25138   0.65685   1.000
    C54     C    0.25138   0.74861   0.34315   1.000
    C55     C    0.74859   0.25139   0.34314   1.000
    C56     C    0.65681   0.74860   0.74861   1.000
    C57     C    0.65681   0.25139   0.25138   1.000
    C58     C    0.34316   0.25140   0.74860   1.000
    C59     C    0.34316   0.74862   0.25138   1.000
    C60     C    0.74859   0.65684   0.74860   1.000
    C61     C    0.25138   0.65685   0.25139   1.000
    C62     C    0.74861   0.34313   0.25136   1.000
    C63     C    0.25135   0.34313   0.74860   1.000
    C64     C    0.74860   0.74856   0.34314   1.000
    C65     C    0.25142   0.25137   0.34313   1.000
    C66     C    0.74864   0.25137   0.65684   1.000
    C67     C    0.25138   0.74864   0.65687   1.000
    C68     C    0.74861   0.65680   0.25138   1.000
    C69     C    0.25140   0.65686   0.74860   1.000
    C70     C    0.25141   0.34313   0.25138   1.000
    C71     C    0.34318   0.25136   0.25135   1.000
loop_
    _geom_bond_atom_site_label_1
    _geom_bond_atom_site_label_2
    _geom_bond_distance
    _geom_bond_site_symmetry_2
    _ccdc_geom_bond_type
    C51    C71       1.40333      .   S
    C51    C70       1.40329      .   S
    C48    C25       1.40291      .   S
    C48    C68       1.40327      .   S
    C38    C62       1.40326      .   S
    C38    C57       1.40337      .   S
    C37    C59       1.40326      .   S
    C37    C61       1.40323      .   S
    H5     C57       1.08978      .   S
    H10    C62       1.08949      .   S
    H23    C71       1.08917      .   S
    H20    C25       1.08871      .   S
    H7     C59       1.08913      .   S
    H16    C68       1.08910      .   S
    H18    C70       1.08912      .   S
    H9     C61       1.08907      .   S
    C25    C40       1.40412      .   S
    C71    C41       1.40330      .   S
    C62    C31       1.40331      .   S
    C57    C33       1.40324      .   S
    C70    C46       1.40222      .   S
    C59    C35       1.40332      .   S
    C68    C44       1.40335      .   S
    C61    C30       1.40329      .   S
    C46    C65       1.40374      .   S
    C41    C65       1.40331      .   S
    C40    C64       1.40328      .   S
    C31    C55       1.40321      .   S
    C35    C54       1.40328      .   S
    C33    C55       1.40326      .   S
    C44    C64       1.40322      .   S
    C30    C54       1.40326      .   S
    C65    H13       1.08914      .   S
    C64    H12       1.08905      .   S
    C55    H3        1.08909      .   S
    C54    H2        1.08909      .   S
    H14    C66       1.08914      .   S
    H1     C53       1.08911      .   S
    H0     C52       1.08904      .   S
    H15    C67       1.08905      .   S
    C66    C47       1.39743      .   S
    C66    C42       1.40319      .   S
    C53    C34       1.40309      .   S
    C53    C29       1.40323      .   S
    C52    C28       1.40327      .   S
    C52    C32       1.40326      .   S
    C67    C45       1.40326      .   S
    C67    C43       1.40332      .   S
    C47    C24       1.41538      .   S
    C34    C58       1.40348      .   S
    C42    C26       1.40337      .   S
    C28    C60       1.40315      .   S
    C32    C56       1.40334      .   S
    C29    C63       1.40305      .   S
    C45    C69       1.40324      .   S
    C43    C27       1.40331      .   S
    C24    H19       1.08908      .   S
    C24    C49       1.40328      .   S
    C26    H21       1.08914      .   S
    C26    C49       1.40333      .   S
    C69    H17       1.08913      .   S
    C69    C50       1.40327      .   S
    C63    H11       1.08922      .   S
    C63    C39       1.40336      .   S
    C60    H8        1.08338      .   S
    C60    C36       1.40316      .   S
    C58    H6        1.08926      .   S
    C58    C39       1.40342      .   S
    C56    H4        1.08912      .   S
    C56    C36       1.40322      .   S
    C27    H22       1.08895      .   S
    C27    C50       1.40331      .   S
