# CIF file generated by openbabel 2.4.90, see http://openbabel.sf.net
data_I
_chemical_name_common ''
_cell_length_a 18.577
_cell_length_b 18.583
_cell_length_c 18.583
_cell_angle_alpha 90.001
_cell_angle_beta 90
_cell_angle_gamma 90
_space_group_name_H-M_alt 'P 1'
_space_group_name_Hall 'P 1'
loop_
    _symmetry_equiv_pos_as_xyz
    x,y,z
loop_
    _atom_site_label
    _atom_site_type_symbol
    _atom_site_fract_x
    _atom_site_fract_y
    _atom_site_fract_z
    _atom_site_occupancy
    Ni0     Ni   0.00001   0.37563   0.49997   1.000
    Ni1     Ni   0.50002   0.00002   0.62435   1.000
    Ni2     Ni   0.50002   0.99997   0.37558   1.000
    Ni3     Ni   0.62436   0.49996   0.99998   1.000
    Ni4     Ni   0.37567   0.50001   0.00000   1.000
    Ni5     Ni   0.62433   0.99997   0.49997   1.000
    Ni6     Ni   0.37573   0.00001   0.49999   1.000
    Ni7     Ni   0.00002   0.49997   0.37573   1.000
    Ni8     Ni   0.00001   0.49999   0.62424   1.000
    Ni9     Ni   0.50001   0.62433   0.00000   1.000
    Ni10    Ni   0.50000   0.37567   0.99998   1.000
    H11     H    0.86877   0.71931   0.55501   1.000
    H12     H    0.13115   0.28059   0.55505   1.000
    H13     H    0.13118   0.71934   0.44497   1.000
    H14     H    0.86879   0.28064   0.44495   1.000
    H15     H    0.55499   0.86882   0.71932   1.000
    H16     H    0.55506   0.13110   0.28057   1.000
    H17     H    0.44499   0.13119   0.71930   1.000
    H18     H    0.44494   0.86885   0.28059   1.000
    H19     H    0.71933   0.55499   0.86873   1.000
    H20     H    0.28074   0.55495   0.13131   1.000
    H21     H    0.71934   0.44497   0.13122   1.000
    H22     H    0.28071   0.44507   0.86867   1.000
    H23     H    0.71923   0.86862   0.44500   1.000
    H24     H    0.28078   0.13130   0.44503   1.000
    H25     H    0.71935   0.13123   0.55498   1.000
    H26     H    0.28078   0.86868   0.55493   1.000
    H27     H    0.86869   0.55490   0.28079   1.000
    H28     H    0.13125   0.55500   0.71928   1.000
    H29     H    0.13129   0.44501   0.28073   1.000
    H30     H    0.86874   0.44503   0.71921   1.000
    H31     H    0.55503   0.71929   0.13116   1.000
    Ni32    Ni   0.00000   0.62432   0.50001   1.000
    H33     H    0.55492   0.28074   0.86868   1.000
    H34     H    0.44494   0.71941   0.86888   1.000
    H35     H    0.44505   0.28072   0.13122   1.000
    H36     H    0.13123   0.28064   0.44490   1.000
    H37     H    0.86882   0.71933   0.44495   1.000
    H38     H    0.86881   0.28062   0.55502   1.000
    H39     H    0.13120   0.71934   0.55502   1.000
    H40     H    0.44496   0.13110   0.28056   1.000
    H41     H    0.44489   0.86896   0.71940   1.000
    H42     H    0.55506   0.86884   0.28057   1.000
    H43     H    0.55504   0.13117   0.71932   1.000
    H44     H    0.28065   0.44496   0.13121   1.000
    H45     H    0.71935   0.44497   0.86875   1.000
    H46     H    0.28071   0.55500   0.86871   1.000
    H47     H    0.71933   0.55495   0.13124   1.000
    H48     H    0.28076   0.13131   0.55495   1.000
    H49     H    0.71929   0.86870   0.55498   1.000
    H50     H    0.28076   0.86870   0.44506   1.000
    H51     H    0.71921   0.13135   0.44507   1.000
    H52     H    0.13127   0.44504   0.71920   1.000
    H53     H    0.86878   0.44496   0.28068   1.000
    H54     H    0.86875   0.55498   0.71928   1.000
    H55     H    0.13125   0.55497   0.28074   1.000
    H56     H    0.44489   0.28061   0.86891   1.000
    H57     H    0.44497   0.71937   0.13117   1.000
    H58     H    0.55503   0.28063   0.13113   1.000
    H59     H    0.55495   0.71927   0.86877   1.000
    H60     H    0.77180   0.77180   0.60829   1.000
    H61     H    0.22819   0.22818   0.60828   1.000
    H62     H    0.22818   0.77180   0.39172   1.000
    H63     H    0.77178   0.22820   0.39171   1.000
    H64     H    0.60823   0.77180   0.77181   1.000
    H65     H    0.60821   0.22820   0.22810   1.000
    H66     H    0.39176   0.22822   0.77181   1.000
    H67     H    0.39174   0.77182   0.22818   1.000
    H68     H    0.77180   0.60827   0.77100   1.000
    H69     H    0.22817   0.60829   0.22820   1.000
    H70     H    0.77183   0.39168   0.22810   1.000
    H71     H    0.22813   0.39169   0.77181   1.000
    H72     H    0.77179   0.77176   0.39171   1.000
    H73     H    0.22821   0.22817   0.39170   1.000
    H74     H    0.77185   0.22817   0.60828   1.000
    H75     H    0.22816   0.77185   0.60832   1.000
    H76     H    0.77182   0.60824   0.22819   1.000
    H77     H    0.22821   0.60828   0.77178   1.000
    H78     H    0.22820   0.39170   0.22819   1.000
    H79     H    0.77179   0.39173   0.77175   1.000
    H80     H    0.60826   0.77177   0.22815   1.000
    H81     H    0.60826   0.22817   0.77178   1.000
    H82     H    0.39175   0.77184   0.77180   1.000
    H83     H    0.39176   0.22816   0.22814   1.000
    C84     C    0.87787   0.67305   0.58912   1.000
    C85     C    0.12209   0.32688   0.58912   1.000
    C86     C    0.12210   0.67307   0.41088   1.000
    C87     C    0.87788   0.32691   0.41085   1.000
    C88     C    0.58911   0.87790   0.67306   1.000
    C89     C    0.58914   0.12205   0.32687   1.000
    C90     C    0.41090   0.12211   0.67308   1.000
    C91     C    0.41086   0.87791   0.32689   1.000
    C92     C    0.67306   0.58911   0.87786   1.000
    C93     C    0.32698   0.58909   0.12217   1.000
    C94     C    0.67308   0.41085   0.12210   1.000
    C95     C    0.32693   0.41091   0.87785   1.000
    C96     C    0.67302   0.87780   0.41080   1.000
    C97     C    0.32701   0.12214   0.41087   1.000
    C98     C    0.67309   0.12211   0.58910   1.000
    C99     C    0.32699   0.87786   0.58911   1.000
    C100    C    0.74860   0.34315   0.74857   1.000
    C101    C    0.65684   0.74857   0.25130   1.000
    C102    C    0.65684   0.25138   0.74858   1.000
    C103    C    0.34316   0.74864   0.74863   1.000
    C104    C    0.87785   0.58905   0.32700   1.000
    C105    C    0.12214   0.58911   0.67303   1.000
    C106    C    0.12217   0.41088   0.32697   1.000
    C107    C    0.87787   0.41089   0.67298   1.000
    C108    C    0.58914   0.67302   0.12200   1.000
    C109    C    0.58907   0.32697   0.87782   1.000
    C110    C    0.41085   0.67312   0.87790   1.000
    C111    C    0.41091   0.32696   0.12211   1.000
    C112    C    0.12213   0.32691   0.41086   1.000
    C113    C    0.87789   0.67304   0.41087   1.000
    C114    C    0.87790   0.32691   0.58910   1.000
    C115    C    0.12211   0.67307   0.58913   1.000
    C116    C    0.41088   0.12205   0.32686   1.000
    C117    C    0.41084   0.87798   0.67315   1.000
    C118    C    0.58914   0.87789   0.32686   1.000
    C119    C    0.58916   0.12207   0.67305   1.000
    C120    C    0.32693   0.41086   0.12210   1.000
    C121    C    0.67306   0.41087   0.87784   1.000
    C122    C    0.32695   0.58914   0.87786   1.000
    C123    C    0.67308   0.58908   0.12210   1.000
    C124    C    0.32699   0.12216   0.58900   1.000
    C125    C    0.67304   0.87784   0.58911   1.000
    C126    C    0.32699   0.87785   0.41090   1.000
    C127    C    0.67300   0.12216   0.41089   1.000
    C128    C    0.12213   0.41089   0.67298   1.000
    C129    C    0.87789   0.41085   0.32693   1.000
    C130    C    0.87787   0.58910   0.67303   1.000
    C131    C    0.12213   0.58910   0.32698   1.000
    C132    C    0.41082   0.32692   0.87794   1.000
    C133    C    0.41087   0.67309   0.12200   1.000
    C134    C    0.58914   0.32690   0.12204   1.000
    C135    C    0.58909   0.67302   0.87788   1.000
    C136    C    0.78001   0.68681   0.68682   1.000
    C137    C    0.84225   0.65250   0.65250   1.000
    C138    C    0.21995   0.31316   0.68682   1.000
    C139    C    0.15772   0.34747   0.65249   1.000
    C140    C    0.21996   0.68682   0.31318   1.000
    C141    C    0.15773   0.65251   0.34750   1.000
    C142    C    0.78002   0.31316   0.31316   1.000
    C143    C    0.84227   0.34746   0.34740   1.000
    C144    C    0.68679   0.78001   0.68682   1.000
    C145    C    0.65249   0.84224   0.65250   1.000
    C146    C    0.68678   0.21998   0.31317   1.000
    C147    C    0.65248   0.15775   0.34748   1.000
    C148    C    0.31319   0.21998   0.68680   1.000
    C149    C    0.34752   0.15776   0.65250   1.000
    C150    C    0.31318   0.78003   0.31317   1.000
    C151    C    0.34749   0.84226   0.34740   1.000
    C152    C    0.68679   0.68681   0.78000   1.000
    C153    C    0.65249   0.65248   0.84224   1.000
    C154    C    0.31318   0.68683   0.21998   1.000
    C155    C    0.34750   0.65251   0.15775   1.000
    C156    C    0.68680   0.31316   0.21995   1.000
    C157    C    0.65251   0.34747   0.15771   1.000
    C158    C    0.31316   0.31317   0.78003   1.000
    C159    C    0.34746   0.34750   0.84227   1.000
    C160    C    0.68680   0.77998   0.31315   1.000
    C161    C    0.65250   0.84221   0.34746   1.000
    C162    C    0.31321   0.21995   0.31314   1.000
    C163    C    0.34752   0.15771   0.34745   1.000
    C164    C    0.68683   0.21995   0.68680   1.000
    C165    C    0.65254   0.15771   0.65249   1.000
    C166    C    0.31318   0.78006   0.68685   1.000
    C167    C    0.34749   0.84230   0.65254   1.000
    C168    C    0.78002   0.68678   0.31318   1.000
    C169    C    0.84224   0.65246   0.34751   1.000
    C170    C    0.21998   0.68684   0.68682   1.000
    C171    C    0.15775   0.65251   0.65250   1.000
    C172    C    0.22000   0.31316   0.31310   1.000
    C173    C    0.15777   0.34747   0.34749   1.000
    C174    C    0.78003   0.31317   0.68600   1.000
    C175    C    0.84227   0.34748   0.65247   1.000
    C176    C    0.68682   0.68678   0.21995   1.000
    C177    C    0.65253   0.65246   0.15772   1.000
    C178    C    0.68680   0.31318   0.77998   1.000
    C179    C    0.65248   0.34750   0.84220   1.000
    C180    C    0.31319   0.68685   0.78003   1.000
    C181    C    0.34749   0.65254   0.84227   1.000
    C182    C    0.31320   0.31316   0.21995   1.000
    C183    C    0.34750   0.34749   0.15772   1.000
    C184    C    0.74860   0.74860   0.65685   1.000
    C185    C    0.25139   0.25138   0.65685   1.000
    C186    C    0.25138   0.74861   0.34315   1.000
    C187    C    0.74859   0.25139   0.34314   1.000
    C188    C    0.65681   0.74860   0.74861   1.000
    C189    C    0.65681   0.25139   0.25138   1.000
    C190    C    0.34316   0.25140   0.74860   1.000
    C191    C    0.34316   0.74862   0.25138   1.000
    C192    C    0.74859   0.65684   0.74860   1.000
    C193    C    0.25138   0.65685   0.25139   1.000
    C194    C    0.74861   0.34313   0.25136   1.000
    C195    C    0.25135   0.34313   0.74860   1.000
    C196    C    0.74860   0.74856   0.34314   1.000
    C197    C    0.25142   0.25137   0.34313   1.000
    C198    C    0.74864   0.25137   0.65684   1.000
    C199    C    0.25138   0.74864   0.65687   1.000
    C200    C    0.74861   0.65680   0.25138   1.000
    C201    C    0.25140   0.65686   0.74860   1.000
    C202    C    0.25141   0.34313   0.25138   1.000
    C203    C    0.34318   0.25136   0.25135   1.000
    N204    N    0.93001   0.62509   0.57318   1.000
    N205    N    0.06997   0.37486   0.57316   1.000
    N206    N    0.06998   0.62509   0.42683   1.000
    N207    N    0.93003   0.37486   0.42678   1.000
    N208    N    0.57319   0.93002   0.62510   1.000
    N209    N    0.57322   0.06992   0.37482   1.000
    N210    N    0.42684   0.06999   0.62512   1.000
    N211    N    0.42681   0.93003   0.37484   1.000
    N212    N    0.62512   0.57318   0.93001   1.000
    N213    N    0.37491   0.57320   0.06999   1.000
    N214    N    0.62515   0.42676   0.06993   1.000
    N215    N    0.37488   0.42684   0.93000   1.000
    N216    N    0.62508   0.92997   0.42678   1.000
    N217    N    0.37496   0.06998   0.42678   1.000
    N218    N    0.62514   0.06995   0.57318   1.000
    N219    N    0.37493   0.93003   0.57321   1.000
    N220    N    0.92999   0.57313   0.37497   1.000
    N221    N    0.06999   0.57319   0.62507   1.000
    N222    N    0.07002   0.42679   0.37492   1.000
    N223    N    0.93001   0.42681   0.62501   1.000
    N224    N    0.57323   0.62508   0.06994   1.000
    N225    N    0.57316   0.37491   0.92996   1.000
    N226    N    0.42678   0.62516   0.93006   1.000
    N227    N    0.42682   0.37491   0.06997   1.000
    N228    N    0.07001   0.37488   0.42681   1.000
    N229    N    0.93002   0.62508   0.42682   1.000
    N230    N    0.93002   0.37487   0.57314   1.000
    N231    N    0.06998   0.62510   0.57318   1.000
    N232    N    0.42682   0.06993   0.37482   1.000
    N233    N    0.42679   0.93009   0.62518   1.000
    N234    N    0.57321   0.93001   0.37482   1.000
    N235    N    0.57323   0.06995   0.62509   1.000
    N236    N    0.37489   0.42680   0.06996   1.000
    N237    N    0.62512   0.42678   0.93000   1.000
    N238    N    0.37489   0.57323   0.93000   1.000
    N239    N    0.62513   0.57315   0.06996   1.000
    N240    N    0.37495   0.07000   0.57319   1.000
    N241    N    0.62510   0.93000   0.57318   1.000
    N242    N    0.37494   0.93001   0.42680   1.000
    N243    N    0.62509   0.06996   0.42677   1.000
    N244    N    0.07001   0.42682   0.62501   1.000
    N245    N    0.93003   0.42678   0.37490   1.000
    N246    N    0.93000   0.57317   0.62507   1.000
    N247    N    0.07000   0.57317   0.37495   1.000
    N248    N    0.42675   0.37488   0.93006   1.000
    N249    N    0.42682   0.62512   0.06998   1.000
    N250    N    0.57322   0.37485   0.06991   1.000
    N251    N    0.57318   0.62507   0.93001   1.000
loop_
    _geom_bond_atom_site_label_1
    _geom_bond_atom_site_label_2
    _geom_bond_distance
    _geom_bond_site_symmetry_2
    _ccdc_geom_bond_type
    N250   N214      1.36406      .   S
    N250   C134      1.34912      .   S
    N250   Ni10      1.88136  1_554   S
    N214   C94       1.34909      .   S
    N214   Ni3       1.88163  1_554   S
    N224   N239      1.36408      .   S
    N224   C108      1.34801      .   S
    N224   Ni9       1.88139      .   S
    N239   C123      1.34914      .   S
    N239   Ni3       1.88173  1_554   S
    N236   N227      1.36410      .   S
    N236   C120      1.34921      .   S
    N236   Ni4       1.88187      .   S
    N227   C111      1.34907      .   S
    N227   Ni10      1.88143  1_554   S
    N249   N213      1.36408      .   S
    N249   C133      1.34792      .   S
    N249   Ni9       1.88145      .   S
    N213   C93       1.34926      .   S
    N213   Ni4       1.88183      .   S
    C133   H57       1.08161      .   S
    C133   C155      1.40477      .   S
    C108   H31       1.08158      .   S
    C108   C177      1.40469      .   S
    C134   H58       1.08133      .   S
    C134   C157      1.40405      .   S
    C123   H47       1.08134      .   S
    C123   C177      1.40409      .   S
    C94    H21       1.08134      .   S
    C94    C157      1.40405      .   S
    C120   H44       1.08137      .   S
    C120   C183      1.40401      .   S
    C111   H35       1.08134      .   S
    C111   C183      1.40393      .   S
    C93    H20       1.08134      .   S
    C93    C155      1.40399      .   S
    C157   C156      1.46628      .   S
    C183   C182      1.46639      .   S
    C177   C176      1.46625      .   S
    C155   C154      1.46644      .   S
    C182   C203      1.40333      .   S
    C182   C202      1.40329      .   S
    C176   C101      1.40291      .   S
    C176   C200      1.40327      .   S
    C156   C194      1.40326      .   S
    C156   C189      1.40337      .   S
    C154   C191      1.40326      .   S
    C154   C193      1.40323      .   S
    H65    C189      1.08978      .   S
    H70    C194      1.08949      .   S
    H83    C203      1.08917      .   S
    H80    C101      1.08871      .   S
    H67    C191      1.08913      .   S
    H76    C200      1.08910      .   S
    H78    C202      1.08912      .   S
    H69    C193      1.08907      .   S
    C101   C160      1.40412      .   S
    C203   C162      1.40330      .   S
    C194   C142      1.40331      .   S
    C189   C146      1.40324      .   S
    C202   C172      1.40222      .   S
    C191   C150      1.40332      .   S
    C200   C168      1.40335      .   S
    C193   C140      1.40329      .   S
    H40    C116      1.08133      .   S
    H42    C118      1.08130      .   S
    H16    C89       1.08144      .   S
    H18    C91       1.08138      .   S
    H53    C129      1.08133      .   S
    H29    C106      1.08136      .   S
    H55    C131      1.08134      .   S
    H27    C104      1.08128      .   S
    C172   C197      1.40374      .   S
    C172   C173      1.46680      .   S
    C162   C197      1.40331      .   S
    C162   C163      1.46640      .   S
    C160   C196      1.40328      .   S
    C160   C161      1.46632      .   S
    C142   C187      1.40321      .   S
    C142   C143      1.46573      .   S
    C150   C186      1.40328      .   S
    C150   C151      1.46567      .   S
    C146   C187      1.40326      .   S
    C146   C147      1.46634      .   S
    C168   C196      1.40322      .   S
    C168   C169      1.46629      .   S
    C140   C186      1.40326      .   S
    C140   C141      1.46632      .   S
    C116   C163      1.40403      .   S
    C116   N232      1.34910      .   S
    C118   C161      1.40400      .   S
    C118   N234      1.34905      .   S
    C89    C147      1.40396      .   S
    C89    N209      1.34905      .   S
    C91    C151      1.40358      .   S
    C91    N211      1.34901      .   S
    C129   C143      1.40366      .   S
    C129   N245      1.34915      .   S
    C106   C173      1.40399      .   S
    C106   N222      1.34910      .   S
    C131   C141      1.40400      .   S
    C131   N247      1.34915      .   S
    C104   C169      1.40397      .   S
    C104   N220      1.34919      .   S
    C197   H73       1.08914      .   S
    C196   H72       1.08905      .   S
    C187   H63       1.08909      .   S
    C186   H62       1.08909      .   S
    C151   C126      1.40537      .   S
    C143   C87       1.40499      .   S
    C163   C97       1.40399      .   S
    C161   C96       1.40288      .   S
    C147   C127      1.40403      .   S
    C173   C112      1.40397      .   S
    C141   C86       1.40400      .   S
    C169   C113      1.40394      .   S
    N209   Ni2       1.88109  1_545   S
    N209   N243      1.36406      .   S
    N234   Ni2       1.88123      .   S
    N234   N216      1.36412      .   S
    N232   Ni2       1.88132  1_545   S
    N232   N217      1.36408      .   S
    N211   Ni2       1.88129      .   S
    N211   N242      1.36416      .   S
    N245   Ni7       1.88168  1_655   S
    N245   N207      1.36393      .   S
    N222   Ni7       1.88148      .   S
    N222   N228      1.36408      .   S
    N247   Ni7       1.88160      .   S
    N247   N206      1.36407      .   S
    N220   Ni7       1.88180  1_655   S
    N220   N229      1.36399      .   S
    C96    N216      1.34952      .   S
    C96    H23       1.08165      .   S
    C87    N207      1.34912      .   S
    C87    H14       1.08132      .   S
    C112   N228      1.34911      .   S
    C112   H36       1.08064      .   S
    C97    N217      1.34920      .   S
    C97    H24       1.08135      .   S
    C113   N229      1.34912      .   S
    C113   H37       1.08141      .   S
    C86    N206      1.34912      .   S
    C86    H13       1.08133      .   S
    C127   N243      1.34922      .   S
    C127   H51       1.08140      .   S
    C126   N242      1.34923      .   S
    C126   H50       1.08138      .   S
    N243   Ni5       1.88202  1_545   S
    N217   Ni6       1.88195      .   S
    N207   Ni0       1.88153  1_655   S
    N216   Ni5       1.88211      .   S
    N242   Ni6       1.88205  1_565   S
    N228   Ni0       1.88126      .   S
    N229   Ni32      1.88153  1_655   S
    N206   Ni32      1.88132      .   S
    Ni5    N241      1.88199      .   S
    Ni5    N218      1.88200  1_565   S
    Ni0    N230      1.88142  1_455   S
    Ni0    N205      1.88119      .   S
    Ni6    N240      1.88209      .   S
    Ni6    N219      1.88223  1_545   S
    Ni32   N204      1.88145  1_455   S
    Ni32   N231      1.88126      .   S
    H26    C99       1.08139      .   S
    H48    C124      1.08028      .   S
    H49    C125      1.08137      .   S
    H25    C98       1.08133      .   S
    H11    C84       1.08139      .   S
    H39    C115      1.08141      .   S
    H38    C114      1.08131      .   S
    H12    C85       1.08135      .   S
    N230   C114      1.34911      .   S
    N230   N223      1.36402      .   S
    N205   C85       1.34909      .   S
    N205   N244      1.36406      .   S
    N204   C84       1.34911      .   S
    N204   N246      1.36405      .   S
    N241   C125      1.34920      .   S
    N241   N208      1.36415      .   S
    N231   C115      1.34911      .   S
    N231   N221      1.36400      .   S
    N218   C98       1.34921      .   S
    N218   N235      1.36403      .   S
    N240   C124      1.34883      .   S
    N240   N210      1.36403      .   S
    N219   C99       1.34921      .   S
    N219   N233      1.36406      .   S
    C124   C149      1.40553      .   S
    C98    C165      1.40402      .   S
    C114   C175      1.40394      .   S
    C125   C145      1.40395      .   S
    C99    C167      1.40396      .   S
    C84    C137      1.40396      .   S
    C85    C139      1.40405      .   S
    C115   C171      1.40396      .   S
    H74    C198      1.08914      .   S
    H61    C185      1.08911      .   S
    H60    C184      1.08904      .   S
    H75    C199      1.08905      .   S
    Ni8    N223      1.88171  1_455   S
    Ni8    N244      1.88153      .   S
    Ni8    N246      1.88179  1_455   S
    Ni8    N221      1.88160      .   S
    Ni1    N235      1.88111      .   S
    Ni1    N208      1.88146  1_545   S
    Ni1    N210      1.88126      .   S
    Ni1    N233      1.88143  1_545   S
    N223   C107      1.34918      .   S
    N244   C128      1.34903      .   S
    N246   C130      1.34909      .   S
    N221   C105      1.34922      .   S
    N235   C119      1.34906      .   S
    N208   C88       1.34905      .   S
    N210   C90       1.34911      .   S
    N233   C117      1.34910      .   S
    C175   C107      1.40400      .   S
    C175   C174      1.45994      .   S
    C165   C119      1.40396      .   S
    C165   C164      1.46631      .   S
    C139   C128      1.40397      .   S
    C139   C138      1.46627      .   S
    C145   C88       1.40400      .   S
    C145   C144      1.46636      .   S
    C137   C130      1.40400      .   S
    C137   C136      1.46631      .   S
    C171   C105      1.40401      .   S
    C171   C170      1.46630      .   S
    C149   C90       1.40400      .   S
    C149   C148      1.46618      .   S
    C167   C117      1.40405      .   S
    C167   C166      1.46642      .   S
    C198   C174      1.39743      .   S
    C198   C164      1.40319      .   S
    C185   C148      1.40309      .   S
    C185   C138      1.40323      .   S
    C184   C136      1.40327      .   S
    C184   C144      1.40326      .   S
    C199   C170      1.40326      .   S
    C199   C166      1.40332      .   S
    C107   H30       1.08133      .   S
    C128   H52       1.08135      .   S
    C130   H54       1.08136      .   S
    C105   H28       1.08132      .   S
    C119   H43       1.08144      .   S
    C88    H15       1.08135      .   S
    C90    H17       1.08041      .   S
    C117   H41       1.08024      .   S
    C174   C100      1.41538      .   S
    C148   C190      1.40348      .   S
    C164   C102      1.40337      .   S
    C136   C192      1.40315      .   S
    C144   C188      1.40334      .   S
    C138   C195      1.40305      .   S
    C170   C201      1.40324      .   S
    C166   C103      1.40331      .   S
    C100   H79       1.08908      .   S
    C100   C178      1.40328      .   S
    C102   H81       1.08914      .   S
    C102   C178      1.40333      .   S
    C201   H77       1.08913      .   S
    C201   C180      1.40327      .   S
    C195   H71       1.08922      .   S
    C195   C158      1.40336      .   S
    C192   H68       1.08338      .   S
    C192   C152      1.40316      .   S
    C190   H66       1.08926      .   S
    C190   C158      1.40342      .   S
    C188   H64       1.08912      .   S
    C188   C152      1.40322      .   S
    C103   H82       1.08895      .   S
    C103   C180      1.40331      .   S
    C178   C179      1.46635      .   S
    C152   C153      1.46656      .   S
    C180   C181      1.46637      .   S
    C158   C159      1.46647      .   S
    C179   C109      1.40400      .   S
    C179   C121      1.40401      .   S
    C153   C92       1.40407      .   S
    C153   C135      1.40402      .   S
    C159   C95       1.40403      .   S
    C159   C132      1.40398      .   S
    C181   C122      1.40399      .   S
    C181   C110      1.40369      .   S
    H22    C95       1.08136      .   S
    H33    C109      1.08133      .   S
    H46    C122      1.08136      .   S
    H19    C92       1.08137      .   S
    H45    C121      1.08136      .   S
    H59    C135      1.08135      .   S
    H34    C110      1.08125      .   S
    H56    C132      1.08136      .   S
    C109   N225      1.34900      .   S
    C121   N237      1.34917      .   S
    C95    N215      1.34918      .   S
    C122   N238      1.34889      .   S
    C92    N212      1.34906      .   S
    C135   N251      1.34906      .   S
    C110   N226      1.34952      .   S
    C132   N248      1.34910      .   S
    N225   N237      1.36407      .   S
    N225   Ni10      1.88170      .   S
    N215   N248      1.36407      .   S
    N215   Ni4       1.88185  1_556   S
    N238   N226      1.36406      .   S
    N238   Ni4       1.88236  1_556   S
    N237   Ni3       1.88164      .   S
    N212   N251      1.36408      .   S
    N212   Ni3       1.88208      .   S
    N251   Ni9       1.88145  1_556   S
    N226   Ni9       1.88145  1_556   S
    N248   Ni10      1.88144      .   S
