# CIF file generated by openbabel 2.4.90, see http://openbabel.sf.net
data_I
_chemical_name_common ''
_cell_length_a 18.577
_cell_length_b 18.583
_cell_length_c 18.583
_cell_angle_alpha 90.001
_cell_angle_beta 90
_cell_angle_gamma 90
_space_group_name_H-M_alt 'P 1'
_space_group_name_Hall 'P 1'
loop_
    _symmetry_equiv_pos_as_xyz
    x,y,z
loop_
    _atom_site_label
    _atom_site_type_symbol
    _atom_site_fract_x
    _atom_site_fract_y
    _atom_site_fract_z
    _atom_site_occupancy
    Ni0     Ni   0.00001   0.37563   0.49997   1.000
    Ni1     Ni   0.50002   0.00002   0.62435   1.000
    Ni2     Ni   0.50002   0.99997   0.37558   1.000
    Ni3     Ni   0.62436   0.49996   0.99998   1.000
    Ni4     Ni   0.37567   0.50001   0.00000   1.000
    Ni5     Ni   0.62433   0.99997   0.49997   1.000
    Ni6     Ni   0.37573   0.00001   0.49999   1.000
    Ni7     Ni   0.00002   0.49997   0.37573   1.000
    Ni8     Ni   0.00001   0.49999   0.62424   1.000
    Ni9     Ni   0.50001   0.62433   0.00000   1.000
    Ni10    Ni   0.50000   0.37567   0.99998   1.000
    H11     H    0.86877   0.71931   0.55501   1.000
    H12     H    0.13115   0.28059   0.55505   1.000
    H13     H    0.13118   0.71934   0.44497   1.000
    H14     H    0.86879   0.28064   0.44495   1.000
    H15     H    0.55499   0.86882   0.71932   1.000
    H16     H    0.55506   0.13110   0.28057   1.000
    H17     H    0.44499   0.13119   0.71930   1.000
    H18     H    0.44494   0.86885   0.28059   1.000
    H19     H    0.71933   0.55499   0.86873   1.000
    H20     H    0.28074   0.55495   0.13131   1.000
    H21     H    0.71934   0.44497   0.13122   1.000
    H22     H    0.28071   0.44507   0.86867   1.000
    H23     H    0.71923   0.86862   0.44500   1.000
    H24     H    0.28078   0.13130   0.44503   1.000
    H25     H    0.71935   0.13123   0.55498   1.000
    H26     H    0.28078   0.86868   0.55493   1.000
    H27     H    0.86869   0.55490   0.28079   1.000
    H28     H    0.13125   0.55500   0.71928   1.000
    H29     H    0.13129   0.44501   0.28073   1.000
    H30     H    0.86874   0.44503   0.71921   1.000
    H31     H    0.55503   0.71929   0.13116   1.000
    Ni32    Ni   0.00000   0.62432   0.50001   1.000
    H33     H    0.55492   0.28074   0.86868   1.000
    H34     H    0.44494   0.71941   0.86888   1.000
    H35     H    0.44505   0.28072   0.13122   1.000
    H36     H    0.13123   0.28064   0.44490   1.000
    H37     H    0.86882   0.71933   0.44495   1.000
    H38     H    0.86881   0.28062   0.55502   1.000
    H39     H    0.13120   0.71934   0.55502   1.000
    H40     H    0.44496   0.13110   0.28056   1.000
    H41     H    0.44489   0.86896   0.71940   1.000
    H42     H    0.55506   0.86884   0.28057   1.000
    H43     H    0.55504   0.13117   0.71932   1.000
    H44     H    0.28065   0.44496   0.13121   1.000
    H45     H    0.71935   0.44497   0.86875   1.000
    H46     H    0.28071   0.55500   0.86871   1.000
    H47     H    0.71933   0.55495   0.13124   1.000
    H48     H    0.28076   0.13131   0.55495   1.000
    H49     H    0.71929   0.86870   0.55498   1.000
    H50     H    0.28076   0.86870   0.44506   1.000
    H51     H    0.71921   0.13135   0.44507   1.000
    H52     H    0.13127   0.44504   0.71920   1.000
    H53     H    0.86878   0.44496   0.28068   1.000
    H54     H    0.86875   0.55498   0.71928   1.000
    H55     H    0.13125   0.55497   0.28074   1.000
    H56     H    0.44489   0.28061   0.86891   1.000
    H57     H    0.44497   0.71937   0.13117   1.000
    H58     H    0.55503   0.28063   0.13113   1.000
    H59     H    0.55495   0.71927   0.86877   1.000
    C60     C    0.87787   0.67305   0.58912   1.000
    C61     C    0.12209   0.32688   0.58912   1.000
    C62     C    0.12210   0.67307   0.41088   1.000
    C63     C    0.87788   0.32691   0.41085   1.000
    C64     C    0.58911   0.87790   0.67306   1.000
    C65     C    0.58914   0.12205   0.32687   1.000
    C66     C    0.41090   0.12211   0.67308   1.000
    C67     C    0.41086   0.87791   0.32689   1.000
    C68     C    0.67306   0.58911   0.87786   1.000
    C69     C    0.32698   0.58909   0.12217   1.000
    C70     C    0.67308   0.41085   0.12210   1.000
    C71     C    0.32693   0.41091   0.87785   1.000
    C72     C    0.67302   0.87780   0.41080   1.000
    C73     C    0.32701   0.12214   0.41087   1.000
    C74     C    0.67309   0.12211   0.58910   1.000
    C75     C    0.32699   0.87786   0.58911   1.000
    C76     C    0.87785   0.58905   0.32700   1.000
    C77     C    0.12214   0.58911   0.67303   1.000
    C78     C    0.12217   0.41088   0.32697   1.000
    C79     C    0.87787   0.41089   0.67298   1.000
    C80     C    0.58914   0.67302   0.12200   1.000
    C81     C    0.58907   0.32697   0.87782   1.000
    C82     C    0.41085   0.67312   0.87790   1.000
    C83     C    0.41091   0.32696   0.12211   1.000
    C84     C    0.12213   0.32691   0.41086   1.000
    C85     C    0.87789   0.67304   0.41087   1.000
    C86     C    0.87790   0.32691   0.58910   1.000
    C87     C    0.12211   0.67307   0.58913   1.000
    C88     C    0.41088   0.12205   0.32686   1.000
    C89     C    0.41084   0.87798   0.67315   1.000
    C90     C    0.58914   0.87789   0.32686   1.000
    C91     C    0.58916   0.12207   0.67305   1.000
    C92     C    0.32693   0.41086   0.12210   1.000
    C93     C    0.67306   0.41087   0.87784   1.000
    C94     C    0.32695   0.58914   0.87786   1.000
    C95     C    0.67308   0.58908   0.12210   1.000
    C96     C    0.32699   0.12216   0.58900   1.000
    C97     C    0.67304   0.87784   0.58911   1.000
    C98     C    0.32699   0.87785   0.41090   1.000
    C99     C    0.67300   0.12216   0.41089   1.000
    C100    C    0.12213   0.41089   0.67298   1.000
    C101    C    0.87789   0.41085   0.32693   1.000
    C102    C    0.87787   0.58910   0.67303   1.000
    C103    C    0.12213   0.58910   0.32698   1.000
    C104    C    0.41082   0.32692   0.87794   1.000
    C105    C    0.41087   0.67309   0.12200   1.000
    C106    C    0.58914   0.32690   0.12204   1.000
    C107    C    0.58909   0.67302   0.87788   1.000
    C108    C    0.84225   0.65250   0.65250   1.000
    C109    C    0.15772   0.34747   0.65249   1.000
    C110    C    0.15773   0.65251   0.34750   1.000
    C111    C    0.84227   0.34746   0.34740   1.000
    C112    C    0.65249   0.84224   0.65250   1.000
    C113    C    0.65248   0.15775   0.34748   1.000
    C114    C    0.34752   0.15776   0.65250   1.000
    C115    C    0.34749   0.84226   0.34740   1.000
    C116    C    0.65249   0.65248   0.84224   1.000
    C117    C    0.34750   0.65251   0.15775   1.000
    C118    C    0.65251   0.34747   0.15771   1.000
    C119    C    0.34746   0.34750   0.84227   1.000
    C120    C    0.65250   0.84221   0.34746   1.000
    C121    C    0.34752   0.15771   0.34745   1.000
    C122    C    0.65254   0.15771   0.65249   1.000
    C123    C    0.34749   0.84230   0.65254   1.000
    C124    C    0.84224   0.65246   0.34751   1.000
    C125    C    0.15775   0.65251   0.65250   1.000
    C126    C    0.15777   0.34747   0.34749   1.000
    C127    C    0.84227   0.34748   0.65247   1.000
    C128    C    0.65253   0.65246   0.15772   1.000
    C129    C    0.65248   0.34750   0.84220   1.000
    C130    C    0.34749   0.65254   0.84227   1.000
    C131    C    0.34750   0.34749   0.15772   1.000
    N132    N    0.93001   0.62509   0.57318   1.000
    N133    N    0.06997   0.37486   0.57316   1.000
    N134    N    0.06998   0.62509   0.42683   1.000
    N135    N    0.93003   0.37486   0.42678   1.000
    N136    N    0.57319   0.93002   0.62510   1.000
    N137    N    0.57322   0.06992   0.37482   1.000
    N138    N    0.42684   0.06999   0.62512   1.000
    N139    N    0.42681   0.93003   0.37484   1.000
    N140    N    0.62512   0.57318   0.93001   1.000
    N141    N    0.37491   0.57320   0.06999   1.000
    N142    N    0.62515   0.42676   0.06993   1.000
    N143    N    0.37488   0.42684   0.93000   1.000
    N144    N    0.62508   0.92997   0.42678   1.000
    N145    N    0.37496   0.06998   0.42678   1.000
    N146    N    0.62514   0.06995   0.57318   1.000
    N147    N    0.37493   0.93003   0.57321   1.000
    N148    N    0.92999   0.57313   0.37497   1.000
    N149    N    0.06999   0.57319   0.62507   1.000
    N150    N    0.07002   0.42679   0.37492   1.000
    N151    N    0.93001   0.42681   0.62501   1.000
    N152    N    0.57323   0.62508   0.06994   1.000
    N153    N    0.57316   0.37491   0.92996   1.000
    N154    N    0.42678   0.62516   0.93006   1.000
    N155    N    0.42682   0.37491   0.06997   1.000
    N156    N    0.07001   0.37488   0.42681   1.000
    N157    N    0.93002   0.62508   0.42682   1.000
    N158    N    0.93002   0.37487   0.57314   1.000
    N159    N    0.06998   0.62510   0.57318   1.000
    N160    N    0.42682   0.06993   0.37482   1.000
    N161    N    0.42679   0.93009   0.62518   1.000
    N162    N    0.57321   0.93001   0.37482   1.000
    N163    N    0.57323   0.06995   0.62509   1.000
    N164    N    0.37489   0.42680   0.06996   1.000
    N165    N    0.62512   0.42678   0.93000   1.000
    N166    N    0.37489   0.57323   0.93000   1.000
    N167    N    0.62513   0.57315   0.06996   1.000
    N168    N    0.37495   0.07000   0.57319   1.000
    N169    N    0.62510   0.93000   0.57318   1.000
    N170    N    0.37494   0.93001   0.42680   1.000
    N171    N    0.62509   0.06996   0.42677   1.000
    N172    N    0.07001   0.42682   0.62501   1.000
    N173    N    0.93003   0.42678   0.37490   1.000
    N174    N    0.93000   0.57317   0.62507   1.000
    N175    N    0.07000   0.57317   0.37495   1.000
    N176    N    0.42675   0.37488   0.93006   1.000
    N177    N    0.42682   0.62512   0.06998   1.000
    N178    N    0.57322   0.37485   0.06991   1.000
    N179    N    0.57318   0.62507   0.93001   1.000
    Ts180   Ts   0.82150   0.66394   0.66394   1.000
    Ts181   Ts   0.17847   0.33603   0.66393   1.000
    Ts182   Ts   0.17847   0.66395   0.33606   1.000
    Ts183   Ts   0.82152   0.33603   0.33599   1.000
    Ts184   Ts   0.66392   0.82150   0.66394   1.000
    Ts185   Ts   0.66391   0.17849   0.33604   1.000
    Ts186   Ts   0.33608   0.17850   0.66393   1.000
    Ts187   Ts   0.33606   0.82152   0.33599   1.000
    Ts188   Ts   0.66392   0.66393   0.82149   1.000
    Ts189   Ts   0.33606   0.66395   0.17849   1.000
    Ts190   Ts   0.66394   0.33603   0.17846   1.000
    Ts191   Ts   0.33603   0.33606   0.82152   1.000
    Ts192   Ts   0.66393   0.82147   0.33602   1.000
    Ts193   Ts   0.33608   0.17846   0.33601   1.000
    Ts194   Ts   0.66397   0.17846   0.66393   1.000
    Ts195   Ts   0.33605   0.82155   0.66398   1.000
    Ts196   Ts   0.82150   0.66390   0.33607   1.000
    Ts197   Ts   0.17849   0.66396   0.66394   1.000
    Ts198   Ts   0.17851   0.33603   0.33603   1.000
    Ts199   Ts   0.82152   0.33605   0.66365   1.000
    Ts200   Ts   0.66396   0.66390   0.17846   1.000
    Ts201   Ts   0.66392   0.33606   0.82146   1.000
    Ts202   Ts   0.33605   0.66397   0.82152   1.000
    Ts203   Ts   0.33607   0.33604   0.17846   1.000
loop_
    _geom_bond_atom_site_label_1
    _geom_bond_atom_site_label_2
    _geom_bond_distance
    _geom_bond_site_symmetry_2
    _ccdc_geom_bond_type
    N178   N142      1.36406      .   S
    N178   C106      1.34912      .   S
    N178   Ni10      1.88136  1_554   S
    N142   C70       1.34909      .   S
    N142   Ni3       1.88163  1_554   S
    N152   N167      1.36408      .   S
    N152   C80       1.34801      .   S
    N152   Ni9       1.88139      .   S
    N167   C95       1.34914      .   S
    N167   Ni3       1.88173  1_554   S
    N164   N155      1.36410      .   S
    N164   C92       1.34921      .   S
    N164   Ni4       1.88187      .   S
    N155   C83       1.34907      .   S
    N155   Ni10      1.88143  1_554   S
    N177   N141      1.36408      .   S
    N177   C105      1.34792      .   S
    N177   Ni9       1.88145      .   S
    N141   C69       1.34926      .   S
    N141   Ni4       1.88183      .   S
    C105   H57       1.08161      .   S
    C105   C117      1.40477      .   S
    C80    H31       1.08158      .   S
    C80    C128      1.40469      .   S
    C106   H58       1.08133      .   S
    C106   C118      1.40405      .   S
    C95    H47       1.08134      .   S
    C95    C128      1.40409      .   S
    C70    H21       1.08134      .   S
    C70    C118      1.40405      .   S
    C92    H44       1.08137      .   S
    C92    C131      1.40401      .   S
    C83    H35       1.08134      .   S
    C83    C131      1.40393      .   S
    C69    H20       1.08134      .   S
    C69    C117      1.40399      .   S
    H40    C88       1.08133      .   S
    H42    C90       1.08130      .   S
    H16    C65       1.08144      .   S
    H18    C67       1.08138      .   S
    H53    C101      1.08133      .   S
    H29    C78       1.08136      .   S
    H55    C103      1.08134      .   S
    H27    C76       1.08128      .   S
    C88    C121      1.40403      .   S
    C88    N160      1.34910      .   S
    C90    C120      1.40400      .   S
    C90    N162      1.34905      .   S
    C65    C113      1.40396      .   S
    C65    N137      1.34905      .   S
    C67    C115      1.40358      .   S
    C67    N139      1.34901      .   S
    C101   C111      1.40366      .   S
    C101   N173      1.34915      .   S
    C78    C126      1.40399      .   S
    C78    N150      1.34910      .   S
    C103   C110      1.40400      .   S
    C103   N175      1.34915      .   S
    C76    C124      1.40397      .   S
    C76    N148      1.34919      .   S
    C115   C98       1.40537      .   S
    C111   C63       1.40499      .   S
    C121   C73       1.40399      .   S
    C120   C72       1.40288      .   S
    C113   C99       1.40403      .   S
    C126   C84       1.40397      .   S
    C110   C62       1.40400      .   S
    C124   C85       1.40394      .   S
    N137   Ni2       1.88109  1_545   S
    N137   N171      1.36406      .   S
    N162   Ni2       1.88123      .   S
    N162   N144      1.36412      .   S
    N160   Ni2       1.88132  1_545   S
    N160   N145      1.36408      .   S
    N139   Ni2       1.88129      .   S
    N139   N170      1.36416      .   S
    N173   Ni7       1.88168  1_655   S
    N173   N135      1.36393      .   S
    N150   Ni7       1.88148      .   S
    N150   N156      1.36408      .   S
    N175   Ni7       1.88160      .   S
    N175   N134      1.36407      .   S
    N148   Ni7       1.88180  1_655   S
    N148   N157      1.36399      .   S
    C72    N144      1.34952      .   S
    C72    H23       1.08165      .   S
    C63    N135      1.34912      .   S
    C63    H14       1.08132      .   S
    C84    N156      1.34911      .   S
    C84    H36       1.08064      .   S
    C73    N145      1.34920      .   S
    C73    H24       1.08135      .   S
    C85    N157      1.34912      .   S
    C85    H37       1.08141      .   S
    C62    N134      1.34912      .   S
    C62    H13       1.08133      .   S
    C99    N171      1.34922      .   S
    C99    H51       1.08140      .   S
    C98    N170      1.34923      .   S
    C98    H50       1.08138      .   S
    N171   Ni5       1.88202  1_545   S
    N145   Ni6       1.88195      .   S
    N135   Ni0       1.88153  1_655   S
    N144   Ni5       1.88211      .   S
    N170   Ni6       1.88205  1_565   S
    N156   Ni0       1.88126      .   S
    N157   Ni32      1.88153  1_655   S
    N134   Ni32      1.88132      .   S
    Ni5    N169      1.88199      .   S
    Ni5    N146      1.88200  1_565   S
    Ni0    N158      1.88142  1_455   S
    Ni0    N133      1.88119      .   S
    Ni6    N168      1.88209      .   S
    Ni6    N147      1.88223  1_545   S
    Ni32   N132      1.88145  1_455   S
    Ni32   N159      1.88126      .   S
    H26    C75       1.08139      .   S
    H48    C96       1.08028      .   S
    H49    C97       1.08137      .   S
    H25    C74       1.08133      .   S
    H11    C60       1.08139      .   S
    H39    C87       1.08141      .   S
    H38    C86       1.08131      .   S
    H12    C61       1.08135      .   S
    N158   C86       1.34911      .   S
    N158   N151      1.36402      .   S
    N133   C61       1.34909      .   S
    N133   N172      1.36406      .   S
    N132   C60       1.34911      .   S
    N132   N174      1.36405      .   S
    N169   C97       1.34920      .   S
    N169   N136      1.36415      .   S
    N159   C87       1.34911      .   S
    N159   N149      1.36400      .   S
    N146   C74       1.34921      .   S
    N146   N163      1.36403      .   S
    N168   C96       1.34883      .   S
    N168   N138      1.36403      .   S
    N147   C75       1.34921      .   S
    N147   N161      1.36406      .   S
    C96    C114      1.40553      .   S
    C74    C122      1.40402      .   S
    C86    C127      1.40394      .   S
    C97    C112      1.40395      .   S
    C75    C123      1.40396      .   S
    C60    C108      1.40396      .   S
    C61    C109      1.40405      .   S
    C87    C125      1.40396      .   S
    Ni8    N151      1.88171  1_455   S
    Ni8    N172      1.88153      .   S
    Ni8    N174      1.88179  1_455   S
    Ni8    N149      1.88160      .   S
    Ni1    N163      1.88111      .   S
    Ni1    N136      1.88146  1_545   S
    Ni1    N138      1.88126      .   S
    Ni1    N161      1.88143  1_545   S
    N151   C79       1.34918      .   S
    N172   C100      1.34903      .   S
    N174   C102      1.34909      .   S
    N149   C77       1.34922      .   S
    N163   C91       1.34906      .   S
    N136   C64       1.34905      .   S
    N138   C66       1.34911      .   S
    N161   C89       1.34910      .   S
    C127   C79       1.40400      .   S
    C122   C91       1.40396      .   S
    C109   C100      1.40397      .   S
    C112   C64       1.40400      .   S
    C108   C102      1.40400      .   S
    C125   C77       1.40401      .   S
    C114   C66       1.40400      .   S
    C123   C89       1.40405      .   S
    C79    H30       1.08133      .   S
    C100   H52       1.08135      .   S
    C102   H54       1.08136      .   S
    C77    H28       1.08132      .   S
    C91    H43       1.08144      .   S
    C64    H15       1.08135      .   S
    C66    H17       1.08041      .   S
    C89    H41       1.08024      .   S
    C129   C81       1.40400      .   S
    C129   C93       1.40401      .   S
    C116   C68       1.40407      .   S
    C116   C107      1.40402      .   S
    C119   C71       1.40403      .   S
    C119   C104      1.40398      .   S
    C130   C94       1.40399      .   S
    C130   C82       1.40369      .   S
    H22    C71       1.08136      .   S
    H33    C81       1.08133      .   S
    H46    C94       1.08136      .   S
    H19    C68       1.08137      .   S
    H45    C93       1.08136      .   S
    H59    C107      1.08135      .   S
    H34    C82       1.08125      .   S
    H56    C104      1.08136      .   S
    C81    N153      1.34900      .   S
    C93    N165      1.34917      .   S
    C71    N143      1.34918      .   S
    C94    N166      1.34889      .   S
    C68    N140      1.34906      .   S
    C107   N179      1.34906      .   S
    C82    N154      1.34952      .   S
    C104   N176      1.34910      .   S
    N153   N165      1.36407      .   S
    N153   Ni10      1.88170      .   S
    N143   N176      1.36407      .   S
    N143   Ni4       1.88185  1_556   S
    N166   N154      1.36406      .   S
    N166   Ni4       1.88236  1_556   S
    N165   Ni3       1.88164      .   S
    N140   N179      1.36408      .   S
    N140   Ni3       1.88208      .   S
    N179   Ni9       1.88145  1_556   S
    N154   Ni9       1.88145  1_556   S
    N176   Ni10      1.88144      .   S
    C108   Ts180     0.48877      .   S
    C109   Ts181     0.48876      .   S
    C110   Ts182     0.48877      .   S
    C111   Ts183     0.48858      .   S
    C112   Ts184     0.48879      .   S
    C113   Ts185     0.48878      .   S
    C114   Ts186     0.48873      .   S
    C115   Ts187     0.48856      .   S
    C116   Ts188     0.48885      .   S
    C117   Ts189     0.48881      .   S
    C118   Ts190     0.48876      .   S
    C119   Ts191     0.48882      .   S
    C120   Ts192     0.48877      .   S
    C121   Ts193     0.48880      .   S
    C122   Ts194     0.48877      .   S
    C123   Ts195     0.48881      .   S
    C124   Ts196     0.48876      .   S
    C125   Ts197     0.48877      .   S
    C126   Ts198     0.48893      .   S
    C127   Ts199     0.48665      .   S
    C128   Ts200     0.48875      .   S
    C129   Ts201     0.48878      .   S
    C130   Ts202     0.48879      .   S
    C131   Ts203     0.48880      .   S
