# CIF file generated by openbabel 2.4.90, see http://openbabel.sf.net
data_I
_chemical_name_common ''
_cell_length_a 18.577
_cell_length_b 18.583
_cell_length_c 18.583
_cell_angle_alpha 90.001
_cell_angle_beta 90
_cell_angle_gamma 90
_space_group_name_H-M_alt 'P 1'
_space_group_name_Hall 'P 1'
loop_
    _symmetry_equiv_pos_as_xyz
    x,y,z
loop_
    _atom_site_label
    _atom_site_type_symbol
    _atom_site_fract_x
    _atom_site_fract_y
    _atom_site_fract_z
    _atom_site_occupancy
    Zr0     Zr   0.00000   0.62432   0.50001   1.000
    Zr1     Zr   0.00001   0.37563   0.49997   1.000
    Zr2     Zr   0.50002   0.00002   0.62435   1.000
    Zr3     Zr   0.50002   0.99997   0.37558   1.000
    Zr4     Zr   0.62436   0.49996   0.99998   1.000
    Zr5     Zr   0.37567   0.50001   0.00000   1.000
    Zr6     Zr   0.62433   0.99997   0.49997   1.000
    Zr7     Zr   0.37573   0.00001   0.49999   1.000
    Zr8     Zr   0.00002   0.49997   0.37573   1.000
    Zr9     Zr   0.00001   0.49999   0.62424   1.000
    Zr10    Zr   0.50001   0.62433   0.00000   1.000
    Zr11    Zr   0.50000   0.37567   0.99998   1.000
    Zr12    Zr   0.86877   0.71931   0.55501   1.000
    Zr13    Zr   0.13115   0.28059   0.55505   1.000
    Zr14    Zr   0.13118   0.71934   0.44497   1.000
    Zr15    Zr   0.86879   0.28064   0.44495   1.000
    Zr16    Zr   0.55499   0.86882   0.71932   1.000
    Zr17    Zr   0.55506   0.13110   0.28057   1.000
    Zr18    Zr   0.44499   0.13119   0.71930   1.000
    Zr19    Zr   0.44494   0.86885   0.28059   1.000
    Zr20    Zr   0.71933   0.55499   0.86873   1.000
    Zr21    Zr   0.28074   0.55495   0.13131   1.000
    Zr22    Zr   0.71934   0.44497   0.13122   1.000
    Zr23    Zr   0.28071   0.44507   0.86867   1.000
    Zr24    Zr   0.71923   0.86862   0.44500   1.000
    Zr25    Zr   0.28078   0.13130   0.44503   1.000
    Zr26    Zr   0.71935   0.13123   0.55498   1.000
    Zr27    Zr   0.28078   0.86868   0.55493   1.000
    Zr28    Zr   0.86869   0.55490   0.28079   1.000
    Zr29    Zr   0.13125   0.55500   0.71928   1.000
    Zr30    Zr   0.13129   0.44501   0.28073   1.000
    Zr31    Zr   0.86874   0.44503   0.71921   1.000
    Zr32    Zr   0.55503   0.71929   0.13116   1.000
    Zr33    Zr   0.55492   0.28074   0.86868   1.000
    Zr34    Zr   0.44494   0.71941   0.86888   1.000
    Zr35    Zr   0.44505   0.28072   0.13122   1.000
    Zr36    Zr   0.13123   0.28064   0.44490   1.000
    Zr37    Zr   0.86882   0.71933   0.44495   1.000
    Zr38    Zr   0.86881   0.28062   0.55502   1.000
    Zr39    Zr   0.13120   0.71934   0.55502   1.000
    Zr40    Zr   0.44496   0.13110   0.28056   1.000
    Zr41    Zr   0.44489   0.86896   0.71940   1.000
    Zr42    Zr   0.55506   0.86884   0.28057   1.000
    Zr43    Zr   0.55504   0.13117   0.71932   1.000
    Zr44    Zr   0.28065   0.44496   0.13121   1.000
    Zr45    Zr   0.71935   0.44497   0.86875   1.000
    Zr46    Zr   0.28071   0.55500   0.86871   1.000
    Zr47    Zr   0.71933   0.55495   0.13124   1.000
    Zr48    Zr   0.28076   0.13131   0.55495   1.000
    Zr49    Zr   0.71929   0.86870   0.55498   1.000
    Zr50    Zr   0.28076   0.86870   0.44506   1.000
    Zr51    Zr   0.71921   0.13135   0.44507   1.000
    Zr52    Zr   0.13127   0.44504   0.71920   1.000
    Zr53    Zr   0.86878   0.44496   0.28068   1.000
    Zr54    Zr   0.86875   0.55498   0.71928   1.000
    Zr55    Zr   0.13125   0.55497   0.28074   1.000
    Zr56    Zr   0.44489   0.28061   0.86891   1.000
    Zr57    Zr   0.44497   0.71937   0.13117   1.000
    Zr58    Zr   0.55503   0.28063   0.13113   1.000
    Zr59    Zr   0.55495   0.71927   0.86877   1.000
    Zr60    Zr   0.87787   0.67305   0.58912   1.000
    Zr61    Zr   0.12209   0.32688   0.58912   1.000
    Zr62    Zr   0.12210   0.67307   0.41088   1.000
    Zr63    Zr   0.87788   0.32691   0.41085   1.000
    Zr64    Zr   0.58911   0.87790   0.67306   1.000
    Zr65    Zr   0.58914   0.12205   0.32687   1.000
    Zr66    Zr   0.41090   0.12211   0.67308   1.000
    Zr67    Zr   0.41086   0.87791   0.32689   1.000
    Zr68    Zr   0.67306   0.58911   0.87786   1.000
    Zr69    Zr   0.32698   0.58909   0.12217   1.000
    Zr70    Zr   0.67308   0.41085   0.12210   1.000
    Zr71    Zr   0.32693   0.41091   0.87785   1.000
    Zr72    Zr   0.67302   0.87780   0.41080   1.000
    Zr73    Zr   0.32701   0.12214   0.41087   1.000
    Zr74    Zr   0.67309   0.12211   0.58910   1.000
    Zr75    Zr   0.32699   0.87786   0.58911   1.000
    Zr76    Zr   0.87785   0.58905   0.32700   1.000
    Zr77    Zr   0.12214   0.58911   0.67303   1.000
    Zr78    Zr   0.12217   0.41088   0.32697   1.000
    Zr79    Zr   0.87787   0.41089   0.67298   1.000
    Zr80    Zr   0.58914   0.67302   0.12200   1.000
    Zr81    Zr   0.58907   0.32697   0.87782   1.000
    Zr82    Zr   0.41085   0.67312   0.87790   1.000
    Zr83    Zr   0.41091   0.32696   0.12211   1.000
    Zr84    Zr   0.12213   0.32691   0.41086   1.000
    Zr85    Zr   0.87789   0.67304   0.41087   1.000
    Zr86    Zr   0.87790   0.32691   0.58910   1.000
    Zr87    Zr   0.12211   0.67307   0.58913   1.000
    Zr88    Zr   0.41088   0.12205   0.32686   1.000
    Zr89    Zr   0.41084   0.87798   0.67315   1.000
    Zr90    Zr   0.58914   0.87789   0.32686   1.000
    Zr91    Zr   0.58916   0.12207   0.67305   1.000
    Zr92    Zr   0.32693   0.41086   0.12210   1.000
    Zr93    Zr   0.67306   0.41087   0.87784   1.000
    Zr94    Zr   0.32695   0.58914   0.87786   1.000
    Zr95    Zr   0.67308   0.58908   0.12210   1.000
    Zr96    Zr   0.32699   0.12216   0.58900   1.000
    Zr97    Zr   0.67304   0.87784   0.58911   1.000
    Zr98    Zr   0.32699   0.87785   0.41090   1.000
    Zr99    Zr   0.67300   0.12216   0.41089   1.000
    Zr100   Zr   0.12213   0.41089   0.67298   1.000
    Zr101   Zr   0.87789   0.41085   0.32693   1.000
    Zr102   Zr   0.87787   0.58910   0.67303   1.000
    Zr103   Zr   0.12213   0.58910   0.32698   1.000
    Zr104   Zr   0.41082   0.32692   0.87794   1.000
    Zr105   Zr   0.41087   0.67309   0.12200   1.000
    Zr106   Zr   0.58914   0.32690   0.12204   1.000
    Zr107   Zr   0.58909   0.67302   0.87788   1.000
    Zr108   Zr   0.84225   0.65250   0.65250   1.000
    Zr109   Zr   0.15772   0.34747   0.65249   1.000
    Zr110   Zr   0.15773   0.65251   0.34750   1.000
    Zr111   Zr   0.84227   0.34746   0.34740   1.000
    Zr112   Zr   0.65249   0.84224   0.65250   1.000
    Zr113   Zr   0.65248   0.15775   0.34748   1.000
    Zr114   Zr   0.34752   0.15776   0.65250   1.000
    Zr115   Zr   0.34749   0.84226   0.34740   1.000
    Zr116   Zr   0.65249   0.65248   0.84224   1.000
    Zr117   Zr   0.34750   0.65251   0.15775   1.000
    Zr118   Zr   0.65251   0.34747   0.15771   1.000
    Zr119   Zr   0.34746   0.34750   0.84227   1.000
    Zr120   Zr   0.65250   0.84221   0.34746   1.000
    Zr121   Zr   0.34752   0.15771   0.34745   1.000
    Zr122   Zr   0.65254   0.15771   0.65249   1.000
    Zr123   Zr   0.34749   0.84230   0.65254   1.000
    Zr124   Zr   0.84224   0.65246   0.34751   1.000
    Zr125   Zr   0.15775   0.65251   0.65250   1.000
    Zr126   Zr   0.15777   0.34747   0.34749   1.000
    Zr127   Zr   0.84227   0.34748   0.65247   1.000
    Zr128   Zr   0.65253   0.65246   0.15772   1.000
    Zr129   Zr   0.65248   0.34750   0.84220   1.000
    Zr130   Zr   0.34749   0.65254   0.84227   1.000
    Zr131   Zr   0.34750   0.34749   0.15772   1.000
    Zr132   Zr   0.93001   0.62509   0.57318   1.000
    Zr133   Zr   0.06997   0.37486   0.57316   1.000
    Zr134   Zr   0.06998   0.62509   0.42683   1.000
    Zr135   Zr   0.93003   0.37486   0.42678   1.000
    Zr136   Zr   0.57319   0.93002   0.62510   1.000
    Zr137   Zr   0.57322   0.06992   0.37482   1.000
    Zr138   Zr   0.42684   0.06999   0.62512   1.000
    Zr139   Zr   0.42681   0.93003   0.37484   1.000
    Zr140   Zr   0.62512   0.57318   0.93001   1.000
    Zr141   Zr   0.37491   0.57320   0.06999   1.000
    Zr142   Zr   0.62515   0.42676   0.06993   1.000
    Zr143   Zr   0.37488   0.42684   0.93000   1.000
    Zr144   Zr   0.62508   0.92997   0.42678   1.000
    Zr145   Zr   0.37496   0.06998   0.42678   1.000
    Zr146   Zr   0.62514   0.06995   0.57318   1.000
    Zr147   Zr   0.37493   0.93003   0.57321   1.000
    Zr148   Zr   0.92999   0.57313   0.37497   1.000
    Zr149   Zr   0.06999   0.57319   0.62507   1.000
    Zr150   Zr   0.07002   0.42679   0.37492   1.000
    Zr151   Zr   0.93001   0.42681   0.62501   1.000
    Zr152   Zr   0.57323   0.62508   0.06994   1.000
    Zr153   Zr   0.57316   0.37491   0.92996   1.000
    Zr154   Zr   0.42678   0.62516   0.93006   1.000
    Zr155   Zr   0.42682   0.37491   0.06997   1.000
    Zr156   Zr   0.07001   0.37488   0.42681   1.000
    Zr157   Zr   0.93002   0.62508   0.42682   1.000
    Zr158   Zr   0.93002   0.37487   0.57314   1.000
    Zr159   Zr   0.06998   0.62510   0.57318   1.000
    Zr160   Zr   0.42682   0.06993   0.37482   1.000
    Zr161   Zr   0.42679   0.93009   0.62518   1.000
    Zr162   Zr   0.57321   0.93001   0.37482   1.000
    Zr163   Zr   0.57323   0.06995   0.62509   1.000
    Zr164   Zr   0.37489   0.42680   0.06996   1.000
    Zr165   Zr   0.62512   0.42678   0.93000   1.000
    Zr166   Zr   0.37489   0.57323   0.93000   1.000
    Zr167   Zr   0.62513   0.57315   0.06996   1.000
    Zr168   Zr   0.37495   0.07000   0.57319   1.000
    Zr169   Zr   0.62510   0.93000   0.57318   1.000
    Zr170   Zr   0.37494   0.93001   0.42680   1.000
    Zr171   Zr   0.62509   0.06996   0.42677   1.000
    Zr172   Zr   0.07001   0.42682   0.62501   1.000
    Zr173   Zr   0.93003   0.42678   0.37490   1.000
    Zr174   Zr   0.93000   0.57317   0.62507   1.000
    Zr175   Zr   0.07000   0.57317   0.37495   1.000
    Zr176   Zr   0.42675   0.37488   0.93006   1.000
    Zr177   Zr   0.42682   0.62512   0.06998   1.000
    Zr178   Zr   0.57322   0.37485   0.06991   1.000
    Zr179   Zr   0.57318   0.62507   0.93001   1.000
    O180    O    0.59918   0.40081   0.06992   1.000
    O181    O    0.58118   0.35088   0.09598   1.000
    O182    O    0.53661   0.37526   0.03494   1.000
    O183    O    0.64911   0.41880   0.09602   1.000
    O184    O    0.62475   0.46336   0.03496   1.000
    O185    O    0.59918   0.59911   0.06995   1.000
    O186    O    0.58118   0.64905   0.09597   1.000
    O187    O    0.53662   0.62470   0.03497   1.000
    O188    O    0.64910   0.58111   0.09603   1.000
    O189    O    0.62474   0.53655   0.03497   1.000
    O190    O    0.40085   0.40086   0.06996   1.000
    O191    O    0.35091   0.41883   0.09603   1.000
    O192    O    0.37528   0.46341   0.03498   1.000
    O193    O    0.41887   0.35094   0.09604   1.000
    O194    O    0.46341   0.37529   0.03498   1.000
    O195    O    0.40087   0.59916   0.06998   1.000
    O196    O    0.41884   0.64911   0.09599   1.000
    O197    O    0.46341   0.62472   0.03499   1.000
    O198    O    0.35095   0.58115   0.09608   1.000
    O199    O    0.37529   0.53661   0.03500   1.000
    O200    O    0.42792   0.69623   0.12659   1.000
    O201    O    0.37919   0.66280   0.13987   1.000
    O202    O    0.57208   0.69615   0.12658   1.000
    O203    O    0.62083   0.66274   0.13986   1.000
    O204    O    0.57208   0.30377   0.12659   1.000
    O205    O    0.62083   0.33718   0.13987   1.000
    O206    O    0.69621   0.57201   0.12667   1.000
    O207    O    0.66280   0.62077   0.13991   1.000
    O208    O    0.69621   0.42791   0.12666   1.000
    O209    O    0.66279   0.37916   0.13991   1.000
    O210    O    0.30379   0.42791   0.12665   1.000
    O211    O    0.33721   0.37917   0.13991   1.000
    O212    O    0.42798   0.30384   0.12666   1.000
    O213    O    0.37921   0.33722   0.13992   1.000
    O214    O    0.30386   0.57202   0.12674   1.000
    O215    O    0.33724   0.62080   0.13996   1.000
    O216    O    0.42792   0.12657   0.30371   1.000
    O217    O    0.57210   0.87337   0.30371   1.000
    O218    O    0.57210   0.12658   0.30372   1.000
    O219    O    0.42790   0.87338   0.30374   1.000
    O220    O    0.87334   0.42791   0.30380   1.000
    O221    O    0.12673   0.42795   0.30385   1.000
    O222    O    0.12669   0.57204   0.30386   1.000
    O223    O    0.87327   0.57197   0.30390   1.000
    O224    O    0.37920   0.13988   0.33715   1.000
    O225    O    0.41885   0.09599   0.35084   1.000
    O226    O    0.62082   0.86005   0.33716   1.000
    O227    O    0.58118   0.90395   0.35084   1.000
    O228    O    0.62081   0.13990   0.33718   1.000
    O229    O    0.58118   0.09599   0.35084   1.000
    O230    O    0.37918   0.86008   0.33715   1.000
    O231    O    0.41884   0.90397   0.35087   1.000
    O232    O    0.86008   0.37916   0.33716   1.000
    O233    O    0.90396   0.41881   0.35091   1.000
    O234    O    0.13997   0.37918   0.33723   1.000
    O235    O    0.09609   0.41884   0.35095   1.000
    O236    O    0.13993   0.62080   0.33724   1.000
    O237    O    0.09606   0.58113   0.35097   1.000
    O238    O    0.86005   0.62075   0.33726   1.000
    O239    O    0.90392   0.58109   0.35099   1.000
    O240    O    0.33724   0.86005   0.37915   1.000
    O241    O    0.86007   0.33719   0.37912   1.000
    O242    O    0.33726   0.13992   0.37916   1.000
    O243    O    0.66276   0.86000   0.37913   1.000
    O244    O    0.66274   0.13996   0.37918   1.000
    O245    O    0.13995   0.33719   0.37918   1.000
    O246    O    0.13991   0.66279   0.37919   1.000
    O247    O    0.86007   0.66275   0.37919   1.000
    O248    O    0.53662   0.03495   0.37520   1.000
    O249    O    0.59915   0.06994   0.40079   1.000
    O250    O    0.53662   0.96499   0.37520   1.000
    O251    O    0.59915   0.92999   0.40080   1.000
    O252    O    0.46342   0.03495   0.37520   1.000
    O253    O    0.40089   0.06996   0.40080   1.000
    O254    O    0.46342   0.96500   0.37521   1.000
    O255    O    0.40088   0.93002   0.40082   1.000
    O256    O    0.96502   0.46337   0.37532   1.000
    O257    O    0.93003   0.40082   0.40084   1.000
    O258    O    0.03502   0.46338   0.37533   1.000
    O259    O    0.07001   0.40084   0.40087   1.000
    O260    O    0.03501   0.53657   0.37534   1.000
    O261    O    0.06999   0.59913   0.40089   1.000
    O262    O    0.96500   0.53655   0.37535   1.000
    O263    O    0.93000   0.59910   0.40090   1.000
    O264    O    0.64905   0.90388   0.41879   1.000
    O265    O    0.69613   0.87321   0.42790   1.000
    O266    O    0.90396   0.35088   0.41881   1.000
    O267    O    0.87333   0.30378   0.42790   1.000
    O268    O    0.09607   0.35089   0.41884   1.000
    O269    O    0.12668   0.30378   0.42788   1.000
    O270    O    0.35098   0.09606   0.41883   1.000
    O271    O    0.30389   0.12672   0.42795   1.000
    O272    O    0.90395   0.64906   0.41884   1.000
    O273    O    0.87335   0.69619   0.42791   1.000
    O274    O    0.09604   0.64908   0.41886   1.000
    O275    O    0.12664   0.69620   0.42792   1.000
    O276    O    0.64905   0.09606   0.41883   1.000
    O277    O    0.69611   0.12675   0.42798   1.000
    O278    O    0.35096   0.90393   0.41885   1.000
    O279    O    0.30387   0.87328   0.42798   1.000
    O280    O    0.62471   0.03497   0.46337   1.000
    O281    O    0.37534   0.03500   0.46338   1.000
    O282    O    0.96502   0.37525   0.46337   1.000
    O283    O    0.62470   0.96497   0.46337   1.000
    O284    O    0.37534   0.96501   0.46340   1.000
    O285    O    0.03501   0.37526   0.46339   1.000
    O286    O    0.96501   0.62470   0.46341   1.000
    O287    O    0.03499   0.62471   0.46342   1.000
    O288    O    0.62471   0.96499   0.53658   1.000
    O289    O    0.62473   0.03496   0.53658   1.000
    O290    O    0.96502   0.37526   0.53656   1.000
    O291    O    0.03499   0.37525   0.53657   1.000
    O292    O    0.37534   0.03501   0.53659   1.000
    O293    O    0.37533   0.96502   0.53660   1.000
    O294    O    0.96501   0.62470   0.53660   1.000
    O295    O    0.03499   0.62471   0.53660   1.000
    O296    O    0.30389   0.87327   0.57202   1.000
    O297    O    0.30388   0.12673   0.57198   1.000
    O298    O    0.69617   0.87327   0.57205   1.000
    O299    O    0.69622   0.12667   0.57204   1.000
    O300    O    0.87332   0.69618   0.57206   1.000
    O301    O    0.12665   0.69621   0.57207   1.000
    O302    O    0.87336   0.30377   0.57206   1.000
    O303    O    0.12662   0.30374   0.57208   1.000
    O304    O    0.90396   0.35089   0.58112   1.000
    O305    O    0.93001   0.40084   0.59907   1.000
    O306    O    0.09603   0.35087   0.58114   1.000
    O307    O    0.06999   0.40084   0.59908   1.000
    O308    O    0.90394   0.64907   0.58115   1.000
    O309    O    0.93001   0.59913   0.59913   1.000
    O310    O    0.64907   0.90392   0.58115   1.000
    O311    O    0.59915   0.93001   0.59914   1.000
    O312    O    0.09604   0.64909   0.58116   1.000
    O313    O    0.06999   0.59915   0.59913   1.000
    O314    O    0.64912   0.09603   0.58114   1.000
    O315    O    0.59919   0.06995   0.59914   1.000
    O316    O    0.35097   0.09608   0.58110   1.000
    O317    O    0.40090   0.07000   0.59915   1.000
    O318    O    0.35096   0.90395   0.58116   1.000
    O319    O    0.40086   0.93006   0.59919   1.000
    O320    O    0.33726   0.13996   0.62075   1.000
    O321    O    0.66282   0.13991   0.62079   1.000
    O322    O    0.86008   0.33719   0.62078   1.000
    O323    O    0.66276   0.86004   0.62080   1.000
    O324    O    0.33724   0.86008   0.62083   1.000
    O325    O    0.86006   0.66278   0.62081   1.000
    O326    O    0.13991   0.33718   0.62080   1.000
    O327    O    0.13993   0.66279   0.62082   1.000
    O328    O    0.96501   0.46340   0.62462   1.000
    O329    O    0.03501   0.46340   0.62462   1.000
    O330    O    0.96501   0.53658   0.62466   1.000
    O331    O    0.03500   0.53659   0.62466   1.000
    O332    O    0.53663   0.03499   0.62472   1.000
    O333    O    0.53661   0.96502   0.62472   1.000
    O334    O    0.46343   0.03501   0.62473   1.000
    O335    O    0.46340   0.96505   0.62476   1.000
    O336    O    0.90394   0.41885   0.64899   1.000
    O337    O    0.09607   0.41885   0.64899   1.000
    O338    O    0.90394   0.58114   0.64905   1.000
    O339    O    0.09607   0.58115   0.64905   1.000
    O340    O    0.58119   0.09601   0.64907   1.000
    O341    O    0.58115   0.90396   0.64908   1.000
    O342    O    0.41887   0.09605   0.64910   1.000
    O343    O    0.41881   0.90404   0.64916   1.000
    O344    O    0.86007   0.37919   0.66273   1.000
    O345    O    0.62085   0.13989   0.66277   1.000
    O346    O    0.13993   0.37918   0.66273   1.000
    O347    O    0.62080   0.86007   0.66278   1.000
    O348    O    0.86006   0.62080   0.66277   1.000
    O349    O    0.13994   0.62081   0.66277   1.000
    O350    O    0.37921   0.13994   0.66279   1.000
    O351    O    0.37916   0.86014   0.66285   1.000
    O352    O    0.87330   0.42796   0.69610   1.000
    O353    O    0.12670   0.42797   0.69609   1.000
    O354    O    0.87331   0.57204   0.69615   1.000
    O355    O    0.12669   0.57205   0.69615   1.000
    O356    O    0.57210   0.12662   0.69618   1.000
    O357    O    0.57205   0.87336   0.69619   1.000
    O358    O    0.42794   0.12665   0.69619   1.000
    O359    O    0.42786   0.87347   0.69628   1.000
    O360    O    0.62077   0.33724   0.86001   1.000
    O361    O    0.66277   0.37918   0.86002   1.000
    O362    O    0.66277   0.62079   0.86005   1.000
    O363    O    0.62079   0.66275   0.86006   1.000
    O364    O    0.33719   0.37921   0.86006   1.000
    O365    O    0.37914   0.33721   0.86011   1.000
    O366    O    0.33722   0.62084   0.86006   1.000
    O367    O    0.37917   0.66283   0.86008   1.000
    O368    O    0.30382   0.42799   0.87326   1.000
    O369    O    0.57199   0.30386   0.87325   1.000
    O370    O    0.30383   0.57207   0.87328   1.000
    O371    O    0.69620   0.57205   0.87329   1.000
    O372    O    0.69620   0.42792   0.87329   1.000
    O373    O    0.57202   0.69615   0.87333   1.000
    O374    O    0.42790   0.69626   0.87339   1.000
    O375    O    0.42786   0.30376   0.87343   1.000
    O376    O    0.58112   0.35094   0.90389   1.000
    O377    O    0.64909   0.41882   0.90392   1.000
    O378    O    0.35091   0.41888   0.90392   1.000
    O379    O    0.35092   0.58118   0.90393   1.000
    O380    O    0.64909   0.58114   0.90394   1.000
    O381    O    0.58114   0.64905   0.90394   1.000
    O382    O    0.41882   0.64914   0.90398   1.000
    O383    O    0.41879   0.35090   0.90400   1.000
    O384    O    0.59914   0.40085   0.92998   1.000
    O385    O    0.53658   0.37529   0.96497   1.000
    O386    O    0.40082   0.40086   0.93003   1.000
    O387    O    0.37527   0.46343   0.96500   1.000
    O388    O    0.40084   0.59919   0.93003   1.000
    O389    O    0.37528   0.53662   0.96500   1.000
    O390    O    0.62474   0.46337   0.96499   1.000
    O391    O    0.59915   0.59912   0.93001   1.000
    O392    O    0.62474   0.53657   0.96499   1.000
    O393    O    0.53659   0.62470   0.96501   1.000
    O394    O    0.46339   0.62474   0.96503   1.000
    O395    O    0.46337   0.37528   0.96502   1.000
    N396    N    0.71774   0.28225   0.71762   1.000
    O397    O    0.76444   0.30629   0.69343   1.000
    O398    O    0.69371   0.23554   0.69363   1.000
    O399    O    0.69369   0.30630   0.76436   1.000
    N400    N    0.71772   0.28225   0.28223   1.000
    O401    O    0.69367   0.23556   0.30628   1.000
    O402    O    0.69369   0.30628   0.23553   1.000
    O403    O    0.76443   0.30628   0.30625   1.000
    N404    N    0.28227   0.71776   0.71774   1.000
    O405    O    0.30630   0.76447   0.69372   1.000
    O406    O    0.30630   0.69373   0.76445   1.000
    O407    O    0.23556   0.69372   0.69370   1.000
    N408    N    0.71773   0.71769   0.28224   1.000
    O409    O    0.69370   0.69366   0.23554   1.000
    O410    O    0.76443   0.69365   0.30629   1.000
    O411    O    0.69369   0.76439   0.30627   1.000
    N412    N    0.71771   0.71773   0.71764   1.000
    O413    O    0.69368   0.69369   0.76438   1.000
    O414    O    0.76442   0.69369   0.69365   1.000
    O415    O    0.69368   0.76443   0.69365   1.000
    N416    N    0.28229   0.28224   0.28223   1.000
    O417    O    0.23559   0.30628   0.30626   1.000
    O418    O    0.30633   0.23554   0.30626   1.000
    O419    O    0.30632   0.30628   0.23553   1.000
    N420    N    0.28226   0.71774   0.28226   1.000
    O421    O    0.30630   0.69371   0.23556   1.000
    O422    O    0.23555   0.69370   0.30630   1.000
    O423    O    0.30630   0.76444   0.30627   1.000
    N424    N    0.28226   0.28226   0.71773   1.000
    O425    O    0.30631   0.23556   0.69369   1.000
    O426    O    0.23555   0.30629   0.69369   1.000
    O427    O    0.30628   0.30630   0.76444   1.000
loop_
    _geom_bond_atom_site_label_1
    _geom_bond_atom_site_label_2
    _geom_bond_distance
    _geom_bond_site_symmetry_2
    _ccdc_geom_bond_type
    Zr178  O180      0.68203      .   S
    Zr142  O180      0.68203      .   S
    Zr178  O181      0.67456      .   S
    Zr106  O181      0.67456      .   S
    Zr178  O182      0.94068      .   S
    Zr11   O182      0.94068  1_556   S
    Zr142  O183      0.67455      .   S
    Zr70   O183      0.67455      .   S
    Zr142  O184      0.94081      .   S
    Zr4    O184      0.94081  1_556   S
    Zr152  O185      0.68204      .   S
    Zr167  O185      0.68204      .   S
    Zr152  O186      0.67400      .   S
    Zr80   O186      0.67400      .   S
    Zr152  O187      0.94069      .   S
    Zr10   O187      0.94069      .   S
    Zr167  O188      0.67457      .   S
    Zr95   O188      0.67457      .   S
    Zr167  O189      0.94087      .   S
    Zr4    O189      0.94087  1_556   S
    Zr164  O190      0.68205      .   S
    Zr155  O190      0.68205      .   S
    Zr164  O191      0.67460      .   S
    Zr92   O191      0.67460      .   S
    Zr164  O192      0.94094      .   S
    Zr5    O192      0.94094      .   S
    Zr155  O193      0.67453      .   S
    Zr83   O193      0.67453      .   S
    Zr155  O194      0.94071      .   S
    Zr11   O194      0.94071  1_556   S
    Zr177  O195      0.68204      .   S
    Zr141  O195      0.68204      .   S
    Zr177  O196      0.67396      .   S
    Zr105  O196      0.67396      .   S
    Zr177  O197      0.94073      .   S
    Zr10   O197      0.94073      .   S
    Zr141  O198      0.67463      .   S
    Zr69   O198      0.67463      .   S
    Zr141  O199      0.94092      .   S
    Zr5    O199      0.94092      .   S
    Zr105  O200      0.54081      .   S
    Zr57   O200      0.54081      .   S
    Zr105  O201      0.70239      .   S
    Zr117  O201      0.70239      .   S
    Zr80   O202      0.54079      .   S
    Zr32   O202      0.54079      .   S
    Zr80   O203      0.70234      .   S
    Zr128  O203      0.70234      .   S
    Zr106  O204      0.54067      .   S
    Zr58   O204      0.54067      .   S
    Zr106  O205      0.70203      .   S
    Zr118  O205      0.70203      .   S
    Zr95   O206      0.54067      .   S
    Zr47   O206      0.54067      .   S
    Zr95   O207      0.70204      .   S
    Zr128  O207      0.70204      .   S
    Zr70   O208      0.54067      .   S
    Zr22   O208      0.54067      .   S
    Zr70   O209      0.70203      .   S
    Zr118  O209      0.70203      .   S
    Zr92   O210      0.54068      .   S
    Zr44   O210      0.54068      .   S
    Zr92   O211      0.70201      .   S
    Zr131  O211      0.70201      .   S
    Zr83   O212      0.54067      .   S
    Zr35   O212      0.54067      .   S
    Zr83   O213      0.70196      .   S
    Zr131  O213      0.70196      .   S
    Zr69   O214      0.54067      .   S
    Zr21   O214      0.54067      .   S
    Zr69   O215      0.70199      .   S
    Zr117  O215      0.70199      .   S
    Zr40   O216      0.54066      .   S
    Zr88   O216      0.54066      .   S
    Zr42   O217      0.54065      .   S
    Zr90   O217      0.54065      .   S
    Zr17   O218      0.54072      .   S
    Zr65   O218      0.54072      .   S
    Zr19   O219      0.54069      .   S
    Zr67   O219      0.54069      .   S
    Zr53   O220      0.54066      .   S
    Zr101  O220      0.54066      .   S
    Zr30   O221      0.54068      .   S
    Zr78   O221      0.54068      .   S
    Zr55   O222      0.54067      .   S
    Zr103  O222      0.54067      .   S
    Zr28   O223      0.54064      .   S
    Zr76   O223      0.54064      .   S
    Zr88   O224      0.70201      .   S
    Zr121  O224      0.70201      .   S
    Zr88   O225      0.67455      .   S
    Zr160  O225      0.67455      .   S
    Zr90   O226      0.70200      .   S
    Zr120  O226      0.70200      .   S
    Zr90   O227      0.67453      .   S
    Zr162  O227      0.67453      .   S
    Zr65   O228      0.70198      .   S
    Zr113  O228      0.70198      .   S
    Zr65   O229      0.67453      .   S
    Zr137  O229      0.67453      .   S
    Zr67   O230      0.70179      .   S
    Zr115  O230      0.70179      .   S
    Zr67   O231      0.67450      .   S
    Zr139  O231      0.67450      .   S
    Zr101  O232      0.70183      .   S
    Zr111  O232      0.70183      .   S
    Zr101  O233      0.67458      .   S
    Zr173  O233      0.67458      .   S
    Zr78   O234      0.70200      .   S
    Zr126  O234      0.70200      .   S
    Zr78   O235      0.67455      .   S
    Zr150  O235      0.67455      .   S
    Zr103  O236      0.70200      .   S
    Zr110  O236      0.70200      .   S
    Zr103  O237      0.67458      .   S
    Zr175  O237      0.67458      .   S
    Zr76   O238      0.70198      .   S
    Zr124  O238      0.70198      .   S
    Zr76   O239      0.67459      .   S
    Zr148  O239      0.67459      .   S
    Zr115  O240      0.70269      .   S
    Zr98   O240      0.70269      .   S
    Zr111  O241      0.70249      .   S
    Zr63   O241      0.70249      .   S
    Zr121  O242      0.70200      .   S
    Zr73   O242      0.70200      .   S
    Zr120  O243      0.70144      .   S
    Zr72   O243      0.70144      .   S
    Zr113  O244      0.70201      .   S
    Zr99   O244      0.70201      .   S
    Zr126  O245      0.70199      .   S
    Zr84   O245      0.70199      .   S
    Zr110  O246      0.70200      .   S
    Zr62   O246      0.70200      .   S
    Zr124  O247      0.70197      .   S
    Zr85   O247      0.70197      .   S
    Zr137  O248      0.94054      .   S
    Zr3    O248      0.94054  1_565   S
    Zr137  O249      0.68203      .   S
    Zr171  O249      0.68203      .   S
    Zr162  O250      0.94061      .   S
    Zr3    O250      0.94061      .   S
    Zr162  O251      0.68206      .   S
    Zr144  O251      0.68206      .   S
    Zr160  O252      0.94066      .   S
    Zr3    O252      0.94066  1_565   S
    Zr160  O253      0.68204      .   S
    Zr145  O253      0.68204      .   S
    Zr139  O254      0.94064      .   S
    Zr3    O254      0.94064      .   S
    Zr139  O255      0.68208      .   S
    Zr170  O255      0.68208      .   S
    Zr173  O256      0.94084      .   S
    Zr8    O256      0.94084  1_455   S
    Zr173  O257      0.68197      .   S
    Zr135  O257      0.68197      .   S
    Zr150  O258      0.94074      .   S
    Zr8    O258      0.94074      .   S
    Zr150  O259      0.68204      .   S
    Zr156  O259      0.68204      .   S
    Zr175  O260      0.94080      .   S
    Zr8    O260      0.94080      .   S
    Zr175  O261      0.68203      .   S
    Zr134  O261      0.68203      .   S
    Zr148  O262      0.94090      .   S
    Zr8    O262      0.94090  1_455   S
    Zr148  O263      0.68200      .   S
    Zr157  O263      0.68200      .   S
    Zr72   O264      0.67476      .   S
    Zr144  O264      0.67476      .   S
    Zr72   O265      0.54082      .   S
    Zr24   O265      0.54082      .   S
    Zr63   O266      0.67456      .   S
    Zr135  O266      0.67456      .   S
    Zr63   O267      0.54066      .   S
    Zr15   O267      0.54066      .   S
    Zr84   O268      0.67456      .   S
    Zr156  O268      0.67456      .   S
    Zr84   O269      0.54032      .   S
    Zr36   O269      0.54032      .   S
    Zr73   O270      0.67460      .   S
    Zr145  O270      0.67460      .   S
    Zr73   O271      0.54067      .   S
    Zr25   O271      0.54067      .   S
    Zr85   O272      0.67456      .   S
    Zr157  O272      0.67456      .   S
    Zr85   O273      0.54070      .   S
    Zr37   O273      0.54070      .   S
    Zr62   O274      0.67456      .   S
    Zr134  O274      0.67456      .   S
    Zr62   O275      0.54067      .   S
    Zr14   O275      0.54067      .   S
    Zr99   O276      0.67461      .   S
    Zr171  O276      0.67461      .   S
    Zr99   O277      0.54070      .   S
    Zr51   O277      0.54070      .   S
    Zr98   O278      0.67461      .   S
    Zr170  O278      0.67461      .   S
    Zr98   O279      0.54069      .   S
    Zr50   O279      0.54069      .   S
    Zr171  O280      0.94101      .   S
    Zr6    O280      0.94101  1_565   S
    Zr145  O281      0.94097      .   S
    Zr7    O281      0.94097      .   S
    Zr135  O282      0.94076      .   S
    Zr1    O282      0.94076  1_455   S
    Zr144  O283      0.94105      .   S
    Zr6    O283      0.94105      .   S
    Zr170  O284      0.94102      .   S
    Zr7    O284      0.94102  1_545   S
    Zr156  O285      0.94063      .   S
    Zr1    O285      0.94063      .   S
    Zr157  O286      0.94076      .   S
    Zr0    O286      0.94076  1_455   S
    Zr134  O287      0.94066      .   S
    Zr0    O287      0.94066      .   S
    Zr6    O288      0.94099      .   S
    Zr169  O288      0.94099      .   S
    Zr6    O289      0.94100  1_565   S
    Zr146  O289      0.94100      .   S
    Zr1    O290      0.94071  1_455   S
    Zr158  O290      0.94071      .   S
    Zr1    O291      0.94060      .   S
    Zr133  O291      0.94060      .   S
    Zr7    O292      0.94105      .   S
    Zr168  O292      0.94105      .   S
    Zr7    O293      0.94111  1_545   S
    Zr147  O293      0.94111      .   S
    Zr0    O294      0.94073  1_455   S
    Zr132  O294      0.94073      .   S
    Zr0    O295      0.94063      .   S
    Zr159  O295      0.94063      .   S
    Zr27   O296      0.54069      .   S
    Zr75   O296      0.54069      .   S
    Zr48   O297      0.54014      .   S
    Zr96   O297      0.54014      .   S
    Zr49   O298      0.54068      .   S
    Zr97   O298      0.54068      .   S
    Zr26   O299      0.54066      .   S
    Zr74   O299      0.54066      .   S
    Zr12   O300      0.54070      .   S
    Zr60   O300      0.54070      .   S
    Zr39   O301      0.54071      .   S
    Zr87   O301      0.54071      .   S
    Zr38   O302      0.54066      .   S
    Zr86   O302      0.54066      .   S
    Zr13   O303      0.54067      .   S
    Zr61   O303      0.54067      .   S
    Zr158  O304      0.67455      .   S
    Zr86   O304      0.67455      .   S
    Zr158  O305      0.68201      .   S
    Zr151  O305      0.68201      .   S
    Zr133  O306      0.67455      .   S
    Zr61   O306      0.67455      .   S
    Zr133  O307      0.68203      .   S
    Zr172  O307      0.68203      .   S
    Zr132  O308      0.67455      .   S
    Zr60   O308      0.67455      .   S
    Zr132  O309      0.68203      .   S
    Zr174  O309      0.68203      .   S
    Zr169  O310      0.67460      .   S
    Zr97   O310      0.67460      .   S
    Zr169  O311      0.68207      .   S
    Zr136  O311      0.68207      .   S
    Zr159  O312      0.67456      .   S
    Zr87   O312      0.67456      .   S
    Zr159  O313      0.68200      .   S
    Zr149  O313      0.68200      .   S
    Zr146  O314      0.67460      .   S
    Zr74   O314      0.67460      .   S
    Zr146  O315      0.68202      .   S
    Zr163  O315      0.68202      .   S
    Zr168  O316      0.67442      .   S
    Zr96   O316      0.67442      .   S
    Zr168  O317      0.68202      .   S
    Zr138  O317      0.68202      .   S
    Zr147  O318      0.67460      .   S
    Zr75   O318      0.67460      .   S
    Zr147  O319      0.68203      .   S
    Zr161  O319      0.68203      .   S
    Zr96   O320      0.70276      .   S
    Zr114  O320      0.70276      .   S
    Zr74   O321      0.70201      .   S
    Zr122  O321      0.70201      .   S
    Zr86   O322      0.70197      .   S
    Zr127  O322      0.70197      .   S
    Zr97   O323      0.70197      .   S
    Zr112  O323      0.70197      .   S
    Zr75   O324      0.70198      .   S
    Zr123  O324      0.70198      .   S
    Zr60   O325      0.70198      .   S
    Zr108  O325      0.70198      .   S
    Zr61   O326      0.70203      .   S
    Zr109  O326      0.70203      .   S
    Zr87   O327      0.70198      .   S
    Zr125  O327      0.70198      .   S
    Zr9    O328      0.94086  1_455   S
    Zr151  O328      0.94086      .   S
    Zr9    O329      0.94077      .   S
    Zr172  O329      0.94077      .   S
    Zr9    O330      0.94089  1_455   S
    Zr174  O330      0.94089      .   S
    Zr9    O331      0.94080      .   S
    Zr149  O331      0.94080      .   S
    Zr2    O332      0.94055      .   S
    Zr163  O332      0.94055      .   S
    Zr2    O333      0.94073  1_545   S
    Zr136  O333      0.94073      .   S
    Zr2    O334      0.94063      .   S
    Zr138  O334      0.94063      .   S
    Zr2    O335      0.94072  1_545   S
    Zr161  O335      0.94072      .   S
    Zr151  O336      0.67459      .   S
    Zr79   O336      0.67459      .   S
    Zr172  O337      0.67452      .   S
    Zr100  O337      0.67452      .   S
    Zr174  O338      0.67454      .   S
    Zr102  O338      0.67454      .   S
    Zr149  O339      0.67461      .   S
    Zr77   O339      0.67461      .   S
    Zr163  O340      0.67453      .   S
    Zr91   O340      0.67453      .   S
    Zr136  O341      0.67453      .   S
    Zr64   O341      0.67453      .   S
    Zr138  O342      0.67456      .   S
    Zr66   O342      0.67456      .   S
    Zr161  O343      0.67455      .   S
    Zr89   O343      0.67455      .   S
    Zr127  O344      0.70200      .   S
    Zr79   O344      0.70200      .   S
    Zr122  O345      0.70198      .   S
    Zr91   O345      0.70198      .   S
    Zr109  O346      0.70198      .   S
    Zr100  O346      0.70198      .   S
    Zr112  O347      0.70200      .   S
    Zr64   O347      0.70200      .   S
    Zr108  O348      0.70200      .   S
    Zr102  O348      0.70200      .   S
    Zr125  O349      0.70201      .   S
    Zr77   O349      0.70201      .   S
    Zr114  O350      0.70200      .   S
    Zr66   O350      0.70200      .   S
    Zr123  O351      0.70203      .   S
    Zr89   O351      0.70203      .   S
    Zr79   O352      0.54066      .   S
    Zr31   O352      0.54066      .   S
    Zr100  O353      0.54068      .   S
    Zr52   O353      0.54068      .   S
    Zr102  O354      0.54068      .   S
    Zr54   O354      0.54068      .   S
    Zr77   O355      0.54066      .   S
    Zr29   O355      0.54066      .   S
    Zr91   O356      0.54072      .   S
    Zr43   O356      0.54072      .   S
    Zr64   O357      0.54068      .   S
    Zr16   O357      0.54068      .   S
    Zr66   O358      0.54020      .   S
    Zr18   O358      0.54020      .   S
    Zr89   O359      0.54012      .   S
    Zr41   O359      0.54012      .   S
    Zr129  O360      0.70200      .   S
    Zr81   O360      0.70200      .   S
    Zr129  O361      0.70201      .   S
    Zr93   O361      0.70201      .   S
    Zr116  O362      0.70203      .   S
    Zr68   O362      0.70203      .   S
    Zr116  O363      0.70201      .   S
    Zr107  O363      0.70201      .   S
    Zr119  O364      0.70201      .   S
    Zr71   O364      0.70201      .   S
    Zr119  O365      0.70199      .   S
    Zr104  O365      0.70199      .   S
    Zr130  O366      0.70199      .   S
    Zr94   O366      0.70199      .   S
    Zr130  O367      0.70185      .   S
    Zr82   O367      0.70185      .   S
    Zr23   O368      0.54068      .   S
    Zr71   O368      0.54068      .   S
    Zr33   O369      0.54067      .   S
    Zr81   O369      0.54067      .   S
    Zr46   O370      0.54068      .   S
    Zr94   O370      0.54068      .   S
    Zr20   O371      0.54068      .   S
    Zr68   O371      0.54068      .   S
    Zr45   O372      0.54068      .   S
    Zr93   O372      0.54068      .   S
    Zr59   O373      0.54068      .   S
    Zr107  O373      0.54068      .   S
    Zr34   O374      0.54062      .   S
    Zr82   O374      0.54062      .   S
    Zr56   O375      0.54068      .   S
    Zr104  O375      0.54068      .   S
    Zr81   O376      0.67450      .   S
    Zr153  O376      0.67450      .   S
    Zr93   O377      0.67458      .   S
    Zr165  O377      0.67458      .   S
    Zr71   O378      0.67459      .   S
    Zr143  O378      0.67459      .   S
    Zr94   O379      0.67444      .   S
    Zr166  O379      0.67444      .   S
    Zr68   O380      0.67453      .   S
    Zr140  O380      0.67453      .   S
    Zr107  O381      0.67453      .   S
    Zr179  O381      0.67453      .   S
    Zr82   O382      0.67476      .   S
    Zr154  O382      0.67476      .   S
    Zr104  O383      0.67455      .   S
    Zr176  O383      0.67455      .   S
    Zr153  O384      0.68204      .   S
    Zr165  O384      0.68204      .   S
    Zr153  O385      0.94085      .   S
    Zr11   O385      0.94085      .   S
    Zr143  O386      0.68204      .   S
    Zr176  O386      0.68204      .   S
    Zr143  O387      0.94092      .   S
    Zr5    O387      0.94092  1_554   S
    Zr166  O388      0.68203      .   S
    Zr154  O388      0.68203      .   S
    Zr166  O389      0.94118      .   S
    Zr5    O389      0.94118  1_554   S
    Zr165  O390      0.94082      .   S
    Zr4    O390      0.94082      .   S
    Zr140  O391      0.68204      .   S
    Zr179  O391      0.68204      .   S
    Zr140  O392      0.94104      .   S
    Zr4    O392      0.94104      .   S
    Zr179  O393      0.94073      .   S
    Zr10   O393      0.94073  1_554   S
    Zr154  O394      0.94073      .   S
    Zr10   O394      0.94073  1_554   S
    Zr176  O395      0.94072      .   S
    Zr11   O395      0.94072      .   S
    N396   O397      1.07447      .   S
    Zr127  O397      1.80428      .   S
    N396   O398      1.07300      .   S
    Zr122  O398      1.80591      .   S
    N396   O399      1.07401      .   S
    Zr129  O399      1.80694      .   S
    N400   O401      1.07338      .   S
    Zr113  O401      1.80631      .   S
    N400   O402      1.07321      .   S
    Zr118  O402      1.80611      .   S
    N400   O403      1.07321      .   S
    Zr111  O403      1.80584      .   S
    N404   O405      1.07335      .   S
    Zr123  O405      1.80632      .   S
    N404   O406      1.07336      .   S
    Zr130  O406      1.80631      .   S
    N404   O407      1.07328      .   S
    Zr125  O407      1.80619      .   S
    N408   O409      1.07327      .   S
    Zr128  O409      1.80615      .   S
    N408   O410      1.07331      .   S
    Zr124  O410      1.80622      .   S
    N408   O411      1.07334      .   S
    Zr120  O411      1.80626      .   S
    N412   O413      1.07394      .   S
    Zr116  O413      1.80698      .   S
    N412   O414      1.07293      .   S
    Zr108  O414      1.80584      .   S
    N412   O415      1.07299      .   S
    Zr112  O415      1.80592      .   S
    N416   O417      1.07316      .   S
    Zr126  O417      1.80631      .   S
    N416   O418      1.07337      .   S
    Zr121  O418      1.80634      .   S
    N416   O419      1.07331      .   S
    Zr131  O419      1.80627      .   S
    N420   O421      1.07333      .   S
    Zr117  O421      1.80631      .   S
    N420   O422      1.07329      .   S
    Zr110  O422      1.80621      .   S
    N420   O423      1.07316      .   S
    Zr115  O423      1.80576      .   S
    N424   O425      1.07337      .   S
    Zr114  O425      1.80622      .   S
    N424   O426      1.07324      .   S
    Zr109  O426      1.80613      .   S
    N424   O427      1.07340      .   S
    Zr119  O427      1.80639      .   S
