# CIF file generated by openbabel 2.4.90, see http://openbabel.sf.net
data_I
_chemical_name_common ''
_cell_length_a 13.592
_cell_length_b 22.212
_cell_length_c 22.222
_cell_angle_alpha 72.165
_cell_angle_beta 90.017
_cell_angle_gamma 89.997
_space_group_name_H-M_alt 'P 1'
_space_group_name_Hall 'P 1'
loop_
    _symmetry_equiv_pos_as_xyz
    x,y,z
loop_
    _atom_site_label
    _atom_site_type_symbol
    _atom_site_fract_x
    _atom_site_fract_y
    _atom_site_fract_z
    _atom_site_occupancy
    H0      H    0.81694   0.98614   0.06782   1.000
    H1      H    0.70111   0.98679   0.10708   1.000
    H2      H    0.20127   0.62639   0.21861   1.000
    H3      H    0.13069   0.67573   0.15459   1.000
    H4      H    0.80873   0.86793   0.12537   1.000
    H5      H    0.27850   0.58214   0.13996   1.000
    H6      H    0.29901   0.71853   0.12654   1.000
    H7      H    0.36955   0.65444   0.17582   1.000
    H8      H    0.22164   0.63992   0.08226   1.000
    H9      H    0.68323   0.93217   0.01380   1.000
    H10     H    0.79902   0.89281   0.01323   1.000
    H11     H    0.69137   0.87460   0.13197   1.000
    C12     C    0.77037   0.96094   0.10792   1.000
    C13     C    0.82469   0.95445   0.16983   1.000
    C14     C    0.16845   0.63002   0.17253   1.000
    C15     C    0.09592   0.57577   0.17997   1.000
    C16     C    0.33178   0.67243   0.13013   1.000
    C17     C    0.40424   0.67993   0.07587   1.000
    C18     C    0.72976   0.89203   0.03903   1.000
    C19     C    0.67544   0.83011   0.04549   1.000
    N20     N    0.75006   0.89627   0.10360   1.000
    N21     N    0.25009   0.62814   0.12823   1.000
    O22     O    0.84938   0.00759   0.17756   1.000
    O23     O    0.84129   0.90031   0.20584   1.000
    O24     O    0.02628   0.57678   0.21914   1.000
    O25     O    0.10840   0.53648   0.15090   1.000
    O26     O    0.47394   0.71907   0.07691   1.000
    O27     O    0.39166   0.65092   0.03654   1.000
    O28     O    0.65077   0.82236   0.99240   1.000
    O29     O    0.65875   0.79413   0.09961   1.000
loop_
    _geom_bond_atom_site_label_1
    _geom_bond_atom_site_label_2
    _geom_bond_distance
    _geom_bond_site_symmetry_2
    _ccdc_geom_bond_type
    H10    C18       1.09976      .   S
    H9     C18       1.09678      .   S
    O27    C17       1.24624      .   S
    C18    C19       1.52851      .   S
    C18    N20       1.49215      .   S
    C19    O29       1.24423      .   S
    C19    O28       1.28764  1_554   S
    H0     C12       1.09675      .   S
    C17    O26       1.29092      .   S
    C17    C16       1.52616      .   S
    H8     N21       1.04763      .   S
    N20    C12       1.49440      .   S
    N20    H4        1.03900      .   S
    N20    H11       1.03928      .   S
    H1     C12       1.09970      .   S
    C12    C13       1.52859      .   S
    H6     C16       1.09688      .   S
    N21    C16       1.49266      .   S
    N21    H5        1.04764      .   S
    N21    C14       1.49260      .   S
    C16    H7        1.09785      .   S
    O25    C15       1.24624      .   S
    H3     C14       1.09788      .   S
    C13    O22       1.28813  1_565   S
    C13    O23       1.24414      .   S
    C14    C15       1.52609      .   S
    C14    H2        1.09697      .   S
    C15    O24       1.29092      .   S
