# CIF file generated by openbabel 2.4.90, see http://openbabel.sf.net
data_I
_chemical_name_common ''
_cell_length_a 13.592
_cell_length_b 22.212
_cell_length_c 22.222
_cell_angle_alpha 72.165
_cell_angle_beta 90.017
_cell_angle_gamma 89.997
_space_group_name_H-M_alt 'P 1'
_space_group_name_Hall 'P 1'
loop_
    _symmetry_equiv_pos_as_xyz
    x,y,z
loop_
    _atom_site_label
    _atom_site_type_symbol
    _atom_site_fract_x
    _atom_site_fract_y
    _atom_site_fract_z
    _atom_site_occupancy
    H0      H    0.31677   0.48618   0.06784   1.000
    H1      H    0.31659   0.48617   0.56788   1.000
    H2      H    0.31692   0.98614   0.06782   1.000
    H3      H    0.31661   0.98613   0.56789   1.000
    H4      H    0.81679   0.48618   0.06784   1.000
    H5      H    0.81661   0.48617   0.56788   1.000
    H6      H    0.81662   0.98613   0.56789   1.000
    H7      H    0.20095   0.48656   0.10718   1.000
    H8      H    0.20083   0.48658   0.60720   1.000
    H9      H    0.20110   0.98679   0.10708   1.000
    H10     H    0.20087   0.98674   0.60727   1.000
    H11     H    0.70097   0.48656   0.10718   1.000
    H12     H    0.70085   0.48658   0.60728   1.000
    H13     H    0.70089   0.98674   0.60727   1.000
    H14     H    0.20124   0.12645   0.21856   1.000
    H15     H    0.20108   0.12659   0.71851   1.000
    H16     H    0.20114   0.62652   0.71854   1.000
    H17     H    0.70125   0.12645   0.21856   1.000
    H18     H    0.70110   0.12659   0.71851   1.000
    H19     H    0.70129   0.62639   0.21861   1.000
    H20     H    0.70116   0.62652   0.71854   1.000
    H21     H    0.13063   0.17576   0.15454   1.000
    H22     H    0.13054   0.17586   0.65443   1.000
    H23     H    0.13060   0.67581   0.65447   1.000
    H24     H    0.63065   0.17576   0.15454   1.000
    H25     H    0.63056   0.17586   0.65443   1.000
    H26     H    0.63071   0.67573   0.15459   1.000
    H27     H    0.63062   0.67581   0.65447   1.000
    H28     H    0.30916   0.36794   0.12523   1.000
    H29     H    0.30887   0.36791   0.62545   1.000
    H30     H    0.30871   0.86793   0.12537   1.000
    H31     H    0.30841   0.86788   0.62568   1.000
    H32     H    0.80918   0.36794   0.12523   1.000
    H33     H    0.80889   0.36791   0.62545   1.000
    H34     H    0.80842   0.86788   0.62569   1.000
    H35     H    0.27848   0.08218   0.13994   1.000
    H36     H    0.27839   0.08221   0.63998   1.000
    H37     H    0.27842   0.58217   0.63998   1.000
    H38     H    0.77850   0.08218   0.13994   1.000
    H39     H    0.77841   0.08221   0.63998   1.000
    H40     H    0.77852   0.58214   0.13996   1.000
    H41     H    0.77844   0.58217   0.63998   1.000
    H42     H    0.31668   0.01380   0.43208   1.000
    H43     H    0.31695   0.01381   0.93214   1.000
    H44     H    0.31660   0.51378   0.43205   1.000
    H45     H    0.31672   0.51377   0.93207   1.000
    H46     H    0.81670   0.01380   0.43208   1.000
    H47     H    0.81697   0.01381   0.93214   1.000
    H48     H    0.81662   0.51378   0.43205   1.000
    H49     H    0.81674   0.51377   0.93207   1.000
    H50     H    0.20095   0.01315   0.39200   1.000
    H51     H    0.20113   0.01318   0.89284   1.000
    H52     H    0.20087   0.51329   0.39260   1.000
    H53     H    0.20093   0.51343   0.89260   1.000
    H54     H    0.70097   0.01315   0.39270   1.000
    H55     H    0.70115   0.01318   0.89284   1.000
    H56     H    0.70089   0.51329   0.39262   1.000
    H57     H    0.70095   0.51343   0.89267   1.000
    H58     H    0.20098   0.37339   0.28142   1.000
    H59     H    0.20111   0.37353   0.78137   1.000
    H60     H    0.20095   0.87333   0.28148   1.000
    H61     H    0.20110   0.87347   0.78143   1.000
    H62     H    0.70100   0.37339   0.28142   1.000
    H63     H    0.70112   0.37353   0.78137   1.000
    H64     H    0.70097   0.87333   0.28148   1.000
    H65     H    0.70112   0.87347   0.78143   1.000
    H66     H    0.13058   0.32409   0.34553   1.000
    H67     H    0.13067   0.32417   0.84543   1.000
    H68     H    0.13052   0.82406   0.34560   1.000
    H69     H    0.13061   0.82417   0.84549   1.000
    H70     H    0.63060   0.32409   0.34553   1.000
    H71     H    0.63069   0.32417   0.84543   1.000
    H72     H    0.63054   0.82406   0.34500   1.000
    H73     H    0.63063   0.82417   0.84549   1.000
    H74     H    0.30823   0.13206   0.37440   1.000
    H75     H    0.30866   0.13203   0.87470   1.000
    H76     H    0.30852   0.63206   0.37448   1.000
    H77     H    0.30904   0.63204   0.87475   1.000
    H78     H    0.69100   0.87462   0.63199   1.000
    H79     H    0.22172   0.35999   0.41773   1.000
    H80     H    0.22174   0.36002   0.91771   1.000
    H81     H    0.22167   0.85999   0.41778   1.000
    H82     H    0.80825   0.13206   0.37440   1.000
    H83     H    0.80868   0.13203   0.87470   1.000
    H84     H    0.80854   0.63206   0.37448   1.000
    H85     H    0.80906   0.63204   0.87475   1.000
    H86     H    0.27835   0.41777   0.35996   1.000
    H87     H    0.27842   0.41781   0.85998   1.000
    H88     H    0.27835   0.91774   0.35999   1.000
    H89     H    0.27844   0.91778   0.86000   1.000
    H90     H    0.77837   0.41777   0.35996   1.000
    H91     H    0.77844   0.41781   0.85998   1.000
    H92     H    0.77837   0.91774   0.35999   1.000
    H93     H    0.77846   0.91778   0.86000   1.000
    H94     H    0.18327   0.06774   0.48610   1.000
    H95     H    0.18310   0.06771   0.98615   1.000
    H96     H    0.18341   0.56775   0.48617   1.000
    H97     H    0.18340   0.56775   0.98615   1.000
    H98     H    0.68328   0.06774   0.48610   1.000
    H99     H    0.68312   0.06771   0.98615   1.000
    H100    H    0.68343   0.56775   0.48617   1.000
    H101    H    0.68342   0.56775   0.98615   1.000
    H102    H    0.29907   0.10714   0.48660   1.000
    H103    H    0.29892   0.10702   0.98684   1.000
    H104    H    0.29917   0.60720   0.48663   1.000
    H105    H    0.29913   0.60717   0.98683   1.000
    H106    H    0.79909   0.10714   0.48660   1.000
    H107    H    0.79894   0.10702   0.98684   1.000
    H108    H    0.79919   0.60720   0.48663   1.000
    H109    H    0.79915   0.60717   0.98683   1.000
    C110    C    0.16828   0.36981   0.32751   1.000
    C111    C    0.16837   0.36990   0.82746   1.000
    C112    C    0.16824   0.86978   0.32756   1.000
    C113    C    0.16834   0.86988   0.82751   1.000
    C114    C    0.66829   0.36981   0.32751   1.000
    H115    H    0.29885   0.21860   0.12639   1.000
    H116    H    0.29882   0.21864   0.62635   1.000
    H117    H    0.29894   0.71857   0.62646   1.000
    H118    H    0.79887   0.21860   0.12639   1.000
    H119    H    0.79884   0.21864   0.62635   1.000
    H120    H    0.79903   0.71852   0.12654   1.000
    H121    H    0.79896   0.71857   0.62646   1.000
    H122    H    0.36946   0.15457   0.17571   1.000
    H123    H    0.36940   0.15462   0.67570   1.000
    H124    H    0.36948   0.65451   0.67577   1.000
    H125    H    0.86947   0.15457   0.17571   1.000
    H126    H    0.86942   0.15462   0.67570   1.000
    H127    H    0.86957   0.65444   0.17582   1.000
    H128    H    0.86950   0.65451   0.67577   1.000
    H129    H    0.19084   0.12524   0.36801   1.000
    H130    H    0.19130   0.12536   0.86801   1.000
    H131    H    0.19111   0.62543   0.36799   1.000
    H132    H    0.19164   0.62565   0.86798   1.000
    H133    H    0.69086   0.12524   0.36801   1.000
    H134    H    0.69132   0.12536   0.86801   1.000
    H135    H    0.69113   0.62543   0.36799   1.000
    H136    H    0.69166   0.62565   0.86798   1.000
    H137    H    0.22154   0.13990   0.08222   1.000
    H138    H    0.22153   0.13991   0.58220   1.000
    H139    H    0.22160   0.63991   0.58223   1.000
    H140    H    0.72155   0.13990   0.08222   1.000
    H141    H    0.72155   0.13991   0.58220   1.000
    H142    H    0.72166   0.63992   0.08226   1.000
    H143    H    0.72162   0.63991   0.58223   1.000
    H144    H    0.18345   0.43214   0.01379   1.000
    H145    H    0.18354   0.43211   0.51379   1.000
    H146    H    0.18321   0.93217   0.01380   1.000
    H147    H    0.18350   0.93210   0.51378   1.000
    H148    H    0.68347   0.43214   0.01379   1.000
    H149    H    0.68356   0.43211   0.51379   1.000
    H150    H    0.68352   0.93210   0.51378   1.000
    H151    H    0.29916   0.39270   0.01317   1.000
    H152    H    0.29925   0.39262   0.51335   1.000
    H153    H    0.29900   0.89281   0.01323   1.000
    H154    H    0.29925   0.89262   0.51350   1.000
    H155    H    0.79917   0.39270   0.01317   1.000
    H156    H    0.79927   0.39262   0.51330   1.000
    H157    H    0.79928   0.89261   0.51351   1.000
    H158    H    0.29906   0.28139   0.37343   1.000
    H159    H    0.29910   0.28145   0.87337   1.000
    H160    H    0.29896   0.78134   0.37355   1.000
    H161    H    0.29896   0.78138   0.87353   1.000
    H162    H    0.79908   0.28139   0.37343   1.000
    H163    H    0.79912   0.28145   0.87337   1.000
    H164    H    0.79898   0.78134   0.37355   1.000
    H165    H    0.79898   0.78138   0.87353   1.000
    H166    H    0.36947   0.34550   0.32413   1.000
    H167    H    0.36954   0.34557   0.82411   1.000
    H168    H    0.36940   0.84540   0.32420   1.000
    H169    H    0.36946   0.84544   0.82420   1.000
    H170    H    0.86949   0.34550   0.32413   1.000
    H171    H    0.86956   0.34557   0.82411   1.000
    H172    H    0.86942   0.84541   0.32420   1.000
    H173    H    0.86948   0.84544   0.82420   1.000
    H174    H    0.19176   0.37432   0.13198   1.000
    H175    H    0.19145   0.37439   0.63200   1.000
    H176    H    0.19134   0.87460   0.13197   1.000
    H177    H    0.19099   0.87462   0.63199   1.000
    H178    H    0.69178   0.37432   0.13198   1.000
    H179    H    0.69147   0.37439   0.63200   1.000
    O180    O    0.60836   0.03653   0.65095   1.000
    O181    O    0.60841   0.53648   0.15090   1.000
    O182    O    0.60839   0.53650   0.65094   1.000
    O183    O    0.34917   0.49250   0.32225   1.000
    O184    O    0.34924   0.49251   0.82230   1.000
    O185    O    0.34922   0.99246   0.32228   1.000
    O186    O    0.34933   0.99244   0.82236   1.000
    O187    O    0.84919   0.49250   0.32225   1.000
    H188    H    0.22166   0.86003   0.91776   1.000
    H189    H    0.72174   0.35999   0.41773   1.000
    H190    H    0.72176   0.36002   0.91771   1.000
    H191    H    0.72169   0.85999   0.41778   1.000
    H192    H    0.72168   0.86003   0.91776   1.000
    C193    C    0.27032   0.46085   0.10796   1.000
    C194    C    0.27018   0.46086   0.60802   1.000
    C195    C    0.27035   0.96094   0.10792   1.000
    C196    C    0.27013   0.96091   0.60803   1.000
    C197    C    0.77034   0.46085   0.10796   1.000
    C198    C    0.77020   0.46086   0.60802   1.000
    C199    C    0.77014   0.96091   0.60803   1.000
    C200    C    0.32467   0.45441   0.16985   1.000
    C201    C    0.32463   0.45441   0.66988   1.000
    C202    C    0.32467   0.95445   0.16983   1.000
    C203    C    0.32460   0.95443   0.66989   1.000
    C204    C    0.82469   0.45441   0.16985   1.000
    C205    C    0.82465   0.45441   0.66988   1.000
    C206    C    0.82462   0.95443   0.66989   1.000
    C207    C    0.16840   0.13005   0.17249   1.000
    C208    C    0.16830   0.13014   0.67244   1.000
    C209    C    0.16835   0.63010   0.67247   1.000
    C210    C    0.66842   0.13005   0.17249   1.000
    C211    C    0.66831   0.13014   0.67244   1.000
    C212    C    0.66847   0.63002   0.17253   1.000
    C213    C    0.66837   0.63010   0.67247   1.000
    C214    C    0.09589   0.07579   0.17996   1.000
    C215    C    0.09579   0.07589   0.67993   1.000
    C216    C    0.09583   0.57585   0.67994   1.000
    C217    C    0.59591   0.07579   0.17996   1.000
    C218    C    0.59580   0.07589   0.67993   1.000
    C219    C    0.59594   0.57577   0.17997   1.000
    C220    C    0.59585   0.57585   0.67994   1.000
    C221    C    0.27014   0.03903   0.39195   1.000
    C222    C    0.27036   0.03904   0.89204   1.000
    C223    C    0.27013   0.53909   0.39191   1.000
    C224    C    0.27027   0.53915   0.89195   1.000
    C225    C    0.77016   0.03903   0.39195   1.000
    C226    C    0.77038   0.03904   0.89204   1.000
    C227    C    0.77015   0.53909   0.39191   1.000
    C228    C    0.77029   0.53915   0.89195   1.000
    C229    C    0.32457   0.04557   0.33009   1.000
    C230    C    0.32466   0.04556   0.83014   1.000
    C231    C    0.32458   0.54561   0.33006   1.000
    C232    C    0.32463   0.54563   0.83007   1.000
    C233    C    0.82459   0.04557   0.33009   1.000
    C234    C    0.82467   0.04556   0.83014   1.000
    C235    C    0.82459   0.54561   0.33006   1.000
    C236    C    0.82465   0.54563   0.83007   1.000
    C237    C    0.66838   0.36990   0.82740   1.000
    C238    C    0.66826   0.86978   0.32756   1.000
    C239    C    0.66836   0.86988   0.82751   1.000
    C240    C    0.09573   0.42404   0.32008   1.000
    C241    C    0.09581   0.42412   0.82000   1.000
    C242    C    0.09573   0.92403   0.32009   1.000
    C243    C    0.09582   0.92413   0.82006   1.000
    C244    C    0.59575   0.42404   0.32008   1.000
    C245    C    0.59583   0.42412   0.82000   1.000
    C246    C    0.59574   0.92403   0.32009   1.000
    C247    C    0.59584   0.92413   0.82006   1.000
    C248    C    0.22969   0.10790   0.46091   1.000
    C249    C    0.22966   0.10786   0.96100   1.000
    C250    C    0.22981   0.60794   0.46092   1.000
    C251    C    0.22988   0.60794   0.96100   1.000
    C252    C    0.72971   0.10790   0.46091   1.000
    C253    C    0.72968   0.10786   0.96100   1.000
    C254    C    0.72983   0.60794   0.46092   1.000
    C255    C    0.72990   0.60794   0.96100   1.000
    C256    C    0.17534   0.16981   0.45450   1.000
    C257    C    0.17535   0.16978   0.95454   1.000
    C258    C    0.17538   0.66982   0.45450   1.000
    C259    C    0.17542   0.66981   0.95455   1.000
    C260    C    0.67536   0.16981   0.45450   1.000
    C261    C    0.67537   0.16979   0.95454   1.000
    C262    C    0.67540   0.66982   0.45450   1.000
    C263    C    0.67544   0.66981   0.95455   1.000
    C264    C    0.33166   0.17250   0.13002   1.000
    C265    C    0.33163   0.17253   0.63001   1.000
    C266    C    0.33171   0.67247   0.63007   1.000
    C267    C    0.83168   0.17250   0.13002   1.000
    C268    C    0.83164   0.17253   0.63001   1.000
    C269    C    0.83180   0.67243   0.13013   1.000
    C270    C    0.83173   0.67247   0.63007   1.000
    C271    C    0.40412   0.17998   0.07577   1.000
    C272    C    0.40410   0.17998   0.57577   1.000
    C273    C    0.40418   0.67994   0.57583   1.000
    C274    C    0.90414   0.17998   0.07577   1.000
    C275    C    0.90412   0.17998   0.57577   1.000
    C276    C    0.90425   0.67993   0.07587   1.000
    C277    C    0.90420   0.67994   0.57583   1.000
    C278    C    0.22993   0.39197   0.03900   1.000
    C279    C    0.22995   0.39193   0.53908   1.000
    C280    C    0.22974   0.89203   0.03903   1.000
    C281    C    0.22987   0.89192   0.53915   1.000
    C282    C    0.72995   0.39197   0.03900   1.000
    C283    C    0.72997   0.39192   0.53908   1.000
    C284    C    0.72989   0.89192   0.53915   1.000
    C285    C    0.17548   0.33009   0.04547   1.000
    C286    C    0.17549   0.33006   0.54550   1.000
    C287    C    0.17542   0.83011   0.04549   1.000
    C288    C    0.17547   0.83005   0.54557   1.000
    C289    C    0.67550   0.33009   0.04547   1.000
    C290    C    0.67551   0.33006   0.54550   1.000
    C291    C    0.67549   0.83005   0.54557   1.000
    C292    C    0.33176   0.32751   0.36980   1.000
    C293    C    0.33181   0.32756   0.86980   1.000
    C294    C    0.33169   0.82745   0.36991   1.000
    C295    C    0.33172   0.82749   0.86990   1.000
    C296    C    0.83178   0.32751   0.36982   1.000
    C297    C    0.83183   0.32756   0.86980   1.000
    C298    C    0.83171   0.82746   0.36990   1.000
    C299    C    0.83174   0.82749   0.86991   1.000
    C300    C    0.40428   0.32005   0.42406   1.000
    C301    C    0.40431   0.32006   0.92406   1.000
    C302    C    0.40423   0.82002   0.42413   1.000
    C303    C    0.40422   0.82002   0.92417   1.000
    C304    C    0.90430   0.32005   0.42406   1.000
    C305    C    0.90432   0.32006   0.92406   1.000
    C306    C    0.90425   0.82002   0.42413   1.000
    C307    C    0.90424   0.82002   0.92410   1.000
    N308    N    0.25033   0.39617   0.10365   1.000
    N309    N    0.25013   0.39617   0.60374   1.000
    N310    N    0.25004   0.89627   0.10368   1.000
    N311    N    0.24983   0.89623   0.60381   1.000
    N312    N    0.75035   0.39617   0.10365   1.000
    N313    N    0.75015   0.39617   0.60374   1.000
    N314    N    0.74985   0.89623   0.60381   1.000
    N315    N    0.24970   0.10367   0.39623   1.000
    N316    N    0.24999   0.10368   0.89634   1.000
    N317    N    0.24988   0.60374   0.39623   1.000
    N318    N    0.25022   0.60380   0.89632   1.000
    N319    N    0.74972   0.10367   0.39623   1.000
    N320    N    0.75001   0.10368   0.89634   1.000
    N321    N    0.74990   0.60374   0.39623   1.000
    N322    N    0.75025   0.60380   0.89632   1.000
    N323    N    0.25002   0.12816   0.12818   1.000
    N324    N    0.24996   0.12820   0.62818   1.000
    N325    N    0.25002   0.62817   0.62820   1.000
    N326    N    0.75004   0.12816   0.12818   1.000
    N327    N    0.74998   0.12820   0.62818   1.000
    N328    N    0.75010   0.62814   0.12823   1.000
    N329    N    0.75004   0.62817   0.62820   1.000
    N330    N    0.25002   0.37176   0.37174   1.000
    N331    N    0.25007   0.37181   0.87170   1.000
    N332    N    0.24998   0.87174   0.37179   1.000
    N333    N    0.25003   0.87179   0.87179   1.000
    N334    N    0.75004   0.37176   0.37174   1.000
    N335    N    0.75009   0.37181   0.87170   1.000
    N336    N    0.75000   0.87174   0.37179   1.000
    N337    N    0.75005   0.87179   0.87179   1.000
    O338    O    0.34936   0.00759   0.17756   1.000
    O339    O    0.34925   0.00756   0.67764   1.000
    O340    O    0.34934   0.50754   0.17756   1.000
    O341    O    0.34928   0.50753   0.67761   1.000
    O342    O    0.84927   0.00756   0.67764   1.000
    O343    O    0.84936   0.50754   0.17756   1.000
    O344    O    0.84930   0.50753   0.67761   1.000
    O345    O    0.34130   0.40027   0.20587   1.000
    O346    O    0.34133   0.40027   0.70587   1.000
    O347    O    0.34127   0.90031   0.20584   1.000
    O348    O    0.34133   0.90028   0.70585   1.000
    O349    O    0.84131   0.40027   0.20587   1.000
    O350    O    0.84135   0.40027   0.70587   1.000
    O351    O    0.84135   0.90028   0.70585   1.000
    O352    O    0.02626   0.07680   0.21914   1.000
    O353    O    0.02609   0.07695   0.71900   1.000
    O354    O    0.02615   0.57689   0.71907   1.000
    O355    O    0.52628   0.07680   0.21914   1.000
    O356    O    0.52610   0.07695   0.71900   1.000
    O357    O    0.52630   0.57678   0.21914   1.000
    O358    O    0.52616   0.57689   0.71907   1.000
    O359    O    0.10837   0.03649   0.15091   1.000
    O360    O    0.10834   0.03653   0.65095   1.000
    O361    O    0.10837   0.53650   0.65094   1.000
    O362    O    0.60839   0.03649   0.15091   1.000
    O363    O    0.84926   0.49251   0.82230   1.000
    O364    O    0.84923   0.99246   0.32228   1.000
    O365    O    0.84935   0.99244   0.82236   1.000
    O366    O    0.34131   0.09974   0.29419   1.000
    O367    O    0.34127   0.09972   0.79418   1.000
    O368    O    0.34135   0.59977   0.29416   1.000
    O369    O    0.34133   0.59979   0.79410   1.000
    O370    O    0.84132   0.09974   0.29419   1.000
    O371    O    0.84129   0.09972   0.79418   1.000
    O372    O    0.84137   0.59977   0.29416   1.000
    O373    O    0.84135   0.59979   0.79413   1.000
    O374    O    0.02596   0.42297   0.28099   1.000
    O375    O    0.02607   0.42308   0.78094   1.000
    O376    O    0.02597   0.92296   0.28099   1.000
    O377    O    0.02612   0.92310   0.78090   1.000
    O378    O    0.52598   0.42297   0.28099   1.000
    O379    O    0.52609   0.42308   0.78094   1.000
    O380    O    0.52599   0.92296   0.28099   1.000
    O381    O    0.52614   0.92310   0.78091   1.000
    O382    O    0.10834   0.46341   0.34905   1.000
    O383    O    0.10837   0.46345   0.84900   1.000
    O384    O    0.10833   0.96341   0.34904   1.000
    O385    O    0.10838   0.96346   0.84908   1.000
    O386    O    0.60835   0.46341   0.34905   1.000
    O387    O    0.60839   0.46345   0.84900   1.000
    O388    O    0.60835   0.96341   0.34900   1.000
    O389    O    0.60840   0.96346   0.84908   1.000
    O390    O    0.15061   0.17749   0.00764   1.000
    O391    O    0.15064   0.17748   0.50760   1.000
    O392    O    0.15069   0.67752   0.00764   1.000
    O393    O    0.15068   0.67749   0.50762   1.000
    O394    O    0.65063   0.17749   0.00764   1.000
    O395    O    0.65066   0.17748   0.50760   1.000
    O396    O    0.65071   0.67752   0.00764   1.000
    O397    O    0.65070   0.67749   0.50762   1.000
    O398    O    0.15869   0.20587   0.40040   1.000
    O399    O    0.15874   0.20584   0.90044   1.000
    O400    O    0.15867   0.70586   0.40040   1.000
    O401    O    0.15870   0.70583   0.90040   1.000
    O402    O    0.65871   0.20587   0.40040   1.000
    O403    O    0.65876   0.20584   0.90044   1.000
    O404    O    0.65869   0.70586   0.40040   1.000
    O405    O    0.65872   0.70583   0.90044   1.000
    O406    O    0.47376   0.21918   0.07676   1.000
    O407    O    0.47374   0.21918   0.57675   1.000
    O408    O    0.47386   0.71911   0.57684   1.000
    O409    O    0.97378   0.21918   0.07676   1.000
    O410    O    0.97376   0.21918   0.57675   1.000
    O411    O    0.97396   0.71907   0.07691   1.000
    O412    O    0.97388   0.71911   0.57684   1.000
    O413    O    0.39162   0.15089   0.03650   1.000
    O414    O    0.39161   0.15088   0.53651   1.000
    O415    O    0.39164   0.65090   0.53653   1.000
    O416    O    0.89164   0.15089   0.03650   1.000
    O417    O    0.89163   0.15088   0.53651   1.000
    O418    O    0.89168   0.65092   0.03654   1.000
    O419    O    0.89166   0.65090   0.53653   1.000
    O420    O    0.15087   0.32230   0.49243   1.000
    O421    O    0.15084   0.32232   0.99239   1.000
    O422    O    0.15085   0.82231   0.49246   1.000
    O423    O    0.15076   0.82236   0.99240   1.000
    O424    O    0.65088   0.32230   0.49243   1.000
    O425    O    0.65085   0.32232   0.99239   1.000
    O426    O    0.65087   0.82231   0.49246   1.000
    O427    O    0.15868   0.29415   0.09960   1.000
    O428    O    0.15865   0.29412   0.59964   1.000
    O429    O    0.15873   0.79413   0.09961   1.000
    O430    O    0.15867   0.79408   0.59968   1.000
    O431    O    0.65870   0.29415   0.09960   1.000
    O432    O    0.65867   0.29412   0.59964   1.000
    O433    O    0.65869   0.79407   0.59968   1.000
    O434    O    0.47405   0.28095   0.42301   1.000
    O435    O    0.47406   0.28095   0.92300   1.000
    O436    O    0.47398   0.78090   0.42310   1.000
    O437    O    0.47392   0.78086   0.92315   1.000
    O438    O    0.97407   0.28095   0.42301   1.000
    O439    O    0.97408   0.28095   0.92300   1.000
    O440    O    0.97400   0.78090   0.42310   1.000
    O441    O    0.97394   0.78086   0.92315   1.000
    O442    O    0.39168   0.34905   0.46340   1.000
    O443    O    0.39170   0.34904   0.96341   1.000
    O444    O    0.39167   0.84906   0.46343   1.000
    O445    O    0.39167   0.84906   0.96347   1.000
    O446    O    0.89170   0.34905   0.46340   1.000
    O447    O    0.89172   0.34904   0.96341   1.000
    O448    O    0.89168   0.84906   0.46343   1.000
    O449    O    0.89169   0.84906   0.96347   1.000
loop_
    _geom_bond_atom_site_label_1
    _geom_bond_atom_site_label_2
    _geom_bond_distance
    _geom_bond_site_symmetry_2
    _ccdc_geom_bond_type
    O392   C259      1.28763  1_554   S
    O394   C261      1.28785  1_554   S
    O390   C257      1.28786  1_554   S
    O396   C263      1.28763  1_554   S
    H151   C278      1.09979      .   S
    H155   C282      1.09980      .   S
    H153   C280      1.09977      .   S
    H148   C282      1.09675      .   S
    H144   C278      1.09677      .   S
    H146   C280      1.09678      .   S
    O416   C274      1.24621      .   S
    O413   C271      1.24621      .   S
    O418   C276      1.24624      .   S
    C278   C285      1.52853      .   S
    C278   N308      1.49382      .   S
    C282   C289      1.52854      .   S
    C282   N312      1.49382      .   S
    C280   C287      1.52850      .   S
    C280   N310      1.49389      .   S
    C289   O431      1.24431      .   S
    C289   O425      1.28757  1_554   S
    C285   O427      1.24432      .   S
    C285   O421      1.28757  1_554   S
    C287   O429      1.24423      .   S
    C287   O423      1.28764  1_554   S
    H2     C195      1.09675      .   S
    H4     C197      1.09681      .   S
    H0     C193      1.09681      .   S
    C271   O406      1.29090      .   S
    C271   C264      1.52608      .   S
    C274   O409      1.29091      .   S
    C274   C267      1.52608      .   S
    C276   O411      1.29092      .   S
    C276   C269      1.52616      .   S
    H140   N326      1.04765      .   S
    H137   N323      1.04765      .   S
    H142   N328      1.04764      .   S
    N312   C197      1.49383      .   S
    N312   H32       1.03841      .   S
    N312   H178      1.03861      .   S
    N308   C193      1.49381      .   S
    N308   H28       1.03841      .   S
    N308   H174      1.03861      .   S
    N310   C195      1.49376      .   S
    N310   H30       1.03848      .   S
    N310   H176      1.03847      .   S
    H9     C195      1.09969      .   S
    H11    C197      1.09970      .   S
    H7     C193      1.09970      .   S
    C195   C202      1.52861      .   S
    C197   C204      1.52853      .   S
    C193   C200      1.52854      .   S
    H118   C267      1.09686      .   S
    H115   C264      1.09688      .   S
    H120   C269      1.09686      .   S
    N323   C264      1.49261      .   S
    N323   H35       1.04765      .   S
    N323   C207      1.49263      .   S
    N326   C267      1.49261      .   S
    N326   H38       1.04765      .   S
    N326   C210      1.49262      .   S
    N328   C269      1.49266      .   S
    N328   H40       1.04764      .   S
    N328   C212      1.49259      .   S
    C264   H122      1.09787      .   S
    C267   H125      1.09787      .   S
    C269   H127      1.09786      .   S
    O181   C219      1.24624      .   S
    O359   C214      1.24622      .   S
    O362   C217      1.24622      .   S
    H21    C207      1.09788      .   S
    H24    C210      1.09790      .   S
    H26    C212      1.09788      .   S
    C202   O338      1.28813  1_565   S
    C202   O347      1.24414      .   S
    C200   O340      1.28786      .   S
    C200   O345      1.24411      .   S
    C204   O343      1.28786      .   S
    C204   O349      1.24411      .   S
    C207   C214      1.52607      .   S
    C207   H14       1.09694      .   S
    C210   C217      1.52606      .   S
    C210   H17       1.09694      .   S
    C212   C219      1.52610      .   S
    C212   H19       1.09696      .   S
    C214   O352      1.29102      .   S
    C217   O355      1.29102      .   S
    C219   O357      1.29092      .   S
    O380   C246      1.29097      .   S
    O378   C244      1.29100      .   S
    O376   C242      1.29096      .   S
    O374   C240      1.29100      .   S
    H62    C114      1.09692      .   S
    H58    C110      1.09692      .   S
    H64    C238      1.09690      .   S
    H60    C112      1.09691      .   S
    O372   C235      1.24424      .   S
    O368   C231      1.24426      .   S
    O370   C233      1.24423      .   S
    O366   C229      1.24423      .   S
    C240   C110      1.52599      .   S
    C240   O382      1.24626      .   S
    C244   C114      1.52599      .   S
    C244   O386      1.24626      .   S
    C246   C238      1.52597      .   S
    C246   O388      1.24555      .   S
    C242   C112      1.52597      .   S
    C242   O384      1.24618      .   S
    O187   C235      1.28783      .   S
    O183   C231      1.28783      .   S
    O364   C233      1.28818  1_565   S
    O185   C229      1.28817  1_565   S
    H166   C292      1.09739      .   S
    H170   C296      1.09776      .   S
    H172   C298      1.09782      .   S
    H168   C294      1.09801      .   S
    C114   H70       1.09788      .   S
    C114   N334      1.49260      .   S
    C110   H66       1.09788      .   S
    C110   N330      1.49261      .   S
    C238   H72       1.09687      .   S
    C238   N336      1.49259      .   S
    C112   H68       1.09788      .   S
    C112   N332      1.49260      .   S
    C235   C227      1.52850      .   S
    C231   C223      1.52850      .   S
    C233   C225      1.52853      .   S
    C229   C221      1.52853      .   S
    H86    N330      1.04755      .   S
    H90    N334      1.04755      .   S
    H88    N332      1.04754      .   S
    H92    N336      1.04754      .   S
    H135   N321      1.03849      .   S
    H131   N317      1.03850      .   S
    H133   N319      1.03846      .   S
    H129   N315      1.03846      .   S
    C292   N330      1.49275      .   S
    C292   H158      1.09676      .   S
    C292   C300      1.52638      .   S
    C296   N334      1.49265      .   S
    C296   H162      1.09685      .   S
    C296   C304      1.52604      .   S
    C298   N336      1.49265      .   S
    C298   H164      1.09686      .   S
    C298   C306      1.52611      .   S
    C294   N332      1.49260      .   S
    C294   H160      1.09690      .   S
    C294   C302      1.52595      .   S
    N330   H79       1.04753      .   S
    N334   H189      1.04753      .   S
    N336   H191      1.04760      .   S
    N332   H81       1.04761      .   S
    H74    N315      1.03866      .   S
    H82    N319      1.03867      .   S
    H76    N317      1.03857      .   S
    H84    N321      1.03857      .   S
    C227   H56       1.09972      .   S
    C227   N321      1.49380      .   S
    C227   H48       1.09680      .   S
    C223   H52       1.09977      .   S
    C223   N317      1.49380      .   S
    C223   H44       1.09679      .   S
    C221   H50       1.10207      .   S
    C221   N315      1.49384      .   S
    C221   H42       1.09676      .   S
    C225   H54       1.09970      .   S
    C225   N319      1.49384      .   S
    C225   H46       1.09676      .   S
    N321   C254      1.49401      .   S
    N319   C252      1.49389      .   S
    N317   C250      1.49401      .   S
    N315   C248      1.49388      .   S
    O402   C260      1.24424      .   S
    O398   C256      1.24424      .   S
    O400   C258      1.24421      .   S
    O404   C262      1.24420      .   S
    O438   C304      1.29090      .   S
    O434   C300      1.29090      .   S
    O436   C302      1.29090      .   S
    O440   C306      1.29091      .   S
    C300   O442      1.24637      .   S
    C304   O446      1.24637      .   S
    C302   O444      1.24620      .   S
    C306   O448      1.24620      .   S
    C262   C254      1.52854      .   S
    C262   O397      1.28793      .   S
    C260   C252      1.52858      .   S
    C260   O395      1.28747      .   S
    C258   C250      1.52856      .   S
    C258   O393      1.28793      .   S
    C256   C248      1.52858      .   S
    C256   O391      1.28747      .   S
    C248   H94       1.09621      .   S
    C248   H102      1.09971      .   S
    C252   H98       1.09621      .   S
    C252   H106      1.09971      .   S
    C250   H96       1.09667      .   S
    C250   H104      1.09971      .   S
    C254   H100      1.09669      .   S
    C254   H108      1.09970      .   S
    O420   C286      1.28718      .   S
    O424   C290      1.28719      .   S
    O422   C288      1.28782      .   S
    O426   C291      1.28782      .   S
    H156   C283      1.10028      .   S
    H152   C279      1.09972      .   S
    H154   C281      1.09980      .   S
    H157   C284      1.09972      .   S
    H150   C284      1.09672      .   S
    H147   C281      1.09673      .   S
    H149   C283      1.09673      .   S
    H145   C279      1.09671      .   S
    O417   C275      1.24628      .   S
    O414   C272      1.24628      .   S
    O415   C273      1.24625      .   S
    O419   C277      1.24625      .   S
    C283   C290      1.52861      .   S
    C283   N313      1.49385      .   S
    C279   C286      1.52863      .   S
    C279   N309      1.49384      .   S
    C281   C288      1.52848      .   S
    C281   N311      1.49378      .   S
    C284   C291      1.52846      .   S
    C284   N314      1.49379      .   S
    C286   O428      1.24457      .   S
    C290   O432      1.24458      .   S
    C291   O433      1.24420      .   S
    C288   O430      1.24420      .   S
    H5     C198      1.09675      .   S
    H1     C194      1.09676      .   S
    H6     C199      1.09674      .   S
    H3     C196      1.09675      .   S
    C275   O410      1.29088      .   S
    C275   C268      1.52617      .   S
    C272   O407      1.29088      .   S
    C272   C265      1.52617      .   S
    C277   O412      1.29090      .   S
    C277   C270      1.52601      .   S
    C273   O408      1.29089      .   S
    C273   C266      1.52601      .   S
    H138   N324      1.04785      .   S
    H141   N327      1.04785      .   S
    H143   N329      1.04755      .   S
    H139   N325      1.04755      .   S
    N309   C194      1.49379      .   S
    N309   H29       1.03853      .   S
    N309   H175      1.03863      .   S
    N313   C198      1.49379      .   S
    N313   H33       1.03854      .   S
    N313   H179      1.03862      .   S
    N311   C196      1.49380      .   S
    N311   H31       1.03866      .   S
    N311   H177      1.03849      .   S
    N314   C199      1.49380      .   S
    N314   H34       1.03871      .   S
    N314   H78       1.03852      .   S
    H8     C194      1.09945      .   S
    H10    C196      1.09973      .   S
    H13    C199      1.09973      .   S
    H12    C198      1.09972      .   S
    C194   C201      1.52858      .   S
    C198   C205      1.52856      .   S
    C196   C203      1.52865      .   S
    C199   C206      1.52865      .   S
    H116   C265      1.09684      .   S
    H119   C268      1.09684      .   S
    H117   C266      1.09690      .   S
    H121   C270      1.09689      .   S
    N327   C268      1.49263      .   S
    N327   H39       1.04760      .   S
    N327   C211      1.49265      .   S
    N324   C265      1.49263      .   S
    N324   H36       1.04760      .   S
    N324   C208      1.49265      .   S
    N325   C266      1.49266      .   S
    N325   H37       1.04760      .   S
    N325   C209      1.49274      .   S
    N329   C270      1.49266      .   S
    N329   H41       1.04760      .   S
    N329   C213      1.49274      .   S
    C265   H123      1.09776      .   S
    C268   H126      1.09776      .   S
    C266   H124      1.09798      .   S
    C270   H128      1.09798      .   S
    O182   C220      1.24616      .   S
    O361   C216      1.24616      .   S
    O360   C215      1.24628      .   S
    O180   C218      1.24628      .   S
    H25    C211      1.09789      .   S
    H22    C208      1.09790      .   S
    H27    C213      1.09788      .   S
    H23    C209      1.09789      .   S
    C201   O341      1.28781      .   S
    C201   O346      1.24422      .   S
    C205   O344      1.28782      .   S
    C205   O350      1.24422      .   S
    C203   O339      1.28810  1_565   S
    C203   O348      1.24419      .   S
    C206   O342      1.28810  1_565   S
    C206   O351      1.24419      .   S
    C208   C215      1.52604      .   S
    C208   H15       1.09687      .   S
    C211   C218      1.52604      .   S
    C211   H18       1.09687      .   S
    C209   C216      1.52607      .   S
    C209   H16       1.09678      .   S
    C213   C220      1.52607      .   S
    C213   H20       1.09678      .   S
    C218   O356      1.29030      .   S
    C215   O353      1.29030      .   S
    C220   O358      1.29103      .   S
    C216   O354      1.29102      .   S
    O377   C243      1.29114      .   S
    O381   C247      1.29098      .   S
    O379   C245      1.29007      .   S
    O375   C241      1.29007      .   S
    H59    C111      1.09692      .   S
    H63    C237      1.09570      .   S
    H61    C113      1.09699      .   S
    H65    C239      1.09699      .   S
    O369   C232      1.24438      .   S
    O373   C236      1.24415      .   S
    O371   C234      1.24417      .   S
    O367   C230      1.24417      .   S
    C241   C111      1.52583      .   S
    C241   O383      1.24591      .   S
    C245   C237      1.52600      .   S
    C245   O387      1.24593      .   S
    C247   C239      1.52598      .   S
    C247   O389      1.24632      .   S
    C243   C113      1.52598      .   S
    C243   O385      1.24632      .   S
    O184   C232      1.28786      .   S
    O363   C236      1.28786      .   S
    O186   C230      1.28829  1_565   S
    O365   C234      1.28829  1_565   S
    H167   C293      1.09792      .   S
    H171   C297      1.09792      .   S
    H173   C299      1.09825      .   S
    H169   C295      1.09806      .   S
    C237   H71       1.09798      .   S
    C237   N335      1.49308      .   S
    C111   H67       1.09786      .   S
    C111   N331      1.49219      .   S
    C113   H69       1.09788      .   S
    C113   N333      1.49256      .   S
    C239   H73       1.09786      .   S
    C239   N337      1.49256      .   S
    C236   C228      1.52863      .   S
    C232   C224      1.52864      .   S
    C234   C226      1.52849      .   S
    C230   C222      1.52850      .   S
    H87    N331      1.04760      .   S
    H91    N335      1.04762      .   S
    H89    N333      1.04756      .   S
    H93    N337      1.04756      .   S
    H136   N322      1.03860      .   S
    H132   N318      1.03860      .   S
    H134   N320      1.03848      .   S
    H130   N316      1.03848      .   S
    C297   N335      1.49249      .   S
    C297   H163      1.09688      .   S
    C297   C305      1.52603      .   S
    C293   N331      1.49248      .   S
    C293   H159      1.09688      .   S
    C293   C301      1.52604      .   S
    C295   N333      1.49264      .   S
    C295   H161      1.09681      .   S
    C295   C303      1.52633      .   S
    C299   N337      1.49258      .   S
    C299   H165      1.09686      .   S
    C299   C307      1.52499      .   S
    N335   H190      1.04809      .   S
    N331   H80       1.04810      .   S
    N337   H192      1.04751      .   S
    N333   H188      1.04751      .   S
    H75    N316      1.03848      .   S
    H83    N320      1.03847      .   S
    H85    N322      1.03845      .   S
    H77    N318      1.03845      .   S
    C228   H57       1.09973      .   S
    C228   N322      1.49376      .   S
    C228   H49       1.09673      .   S
    C224   H53       1.09993      .   S
    C224   N318      1.49379      .   S
    C224   H45       1.09673      .   S
    C226   H55       1.09971      .   S
    C226   N320      1.49379      .   S
    C226   H47       1.09676      .   S
    C222   H51       1.09971      .   S
    C222   N316      1.49377      .   S
    C222   H43       1.09676      .   S
    N322   C255      1.49398      .   S
    N318   C251      1.49398      .   S
    N316   C249      1.49379      .   S
    N320   C253      1.49378      .   S
    O401   C259      1.24489      .   S
    O399   C257      1.24404      .   S
    O405   C263      1.24421      .   S
    O403   C261      1.24403      .   S
    O439   C305      1.29093      .   S
    O435   C301      1.29093      .   S
    O441   C307      1.29057      .   S
    O437   C303      1.29094      .   S
    C301   O443      1.24628      .   S
    C305   O447      1.24628      .   S
    C307   O449      1.24757      .   S
    C303   O445      1.24623      .   S
    C261   C253      1.52859      .   S
    C257   C249      1.52857      .   S
    C259   C251      1.52860      .   S
    C263   C255      1.52861      .   S
    C249   H95       1.09677      .   S
    C249   H103      1.09976      .   S
    C251   H97       1.09671      .   S
    C251   H105      1.09973      .   S
    C253   H99       1.09676      .   S
    C253   H107      1.09977      .   S
    C255   H101      1.09672      .   S
    C255   H109      1.09972      .   S
