# CIF file generated by openbabel 2.4.90, see http://openbabel.sf.net
data_I
_chemical_name_common ''
_cell_length_a 13.592
_cell_length_b 22.212
_cell_length_c 22.222
_cell_angle_alpha 72.165
_cell_angle_beta 90.017
_cell_angle_gamma 89.997
_space_group_name_H-M_alt 'P 1'
_space_group_name_Hall 'P 1'
loop_
    _symmetry_equiv_pos_as_xyz
    x,y,z
loop_
    _atom_site_label
    _atom_site_type_symbol
    _atom_site_fract_x
    _atom_site_fract_y
    _atom_site_fract_z
    _atom_site_occupancy
    N0      N    0.25004   0.90657   0.09338   1.000
    N1      N    0.25008   0.36217   0.86209   1.000
    N2      N    0.24998   0.86208   0.36218   1.000
    N3      N    0.25003   0.86214   0.86216   1.000
    N4      N    0.75004   0.36211   0.36212   1.000
    N5      N    0.75009   0.36217   0.86209   1.000
    N6      N    0.75000   0.86208   0.36213   1.000
    N7      N    0.75005   0.86214   0.86216   1.000
    N8      N    0.24989   0.09338   0.40649   1.000
    N9      N    0.25000   0.09337   0.90662   1.000
    N10     N    0.24996   0.59342   0.40653   1.000
    N11     N    0.25008   0.59345   0.90658   1.000
    N12     N    0.74999   0.90652   0.59348   1.000
    N13     N    0.25002   0.36211   0.36212   1.000
    N14     N    0.74991   0.09338   0.40654   1.000
    N15     N    0.75002   0.09337   0.90662   1.000
    N16     N    0.74997   0.59342   0.40653   1.000
    N17     N    0.75010   0.59345   0.90659   1.000
    N18     N    0.75016   0.40651   0.09337   1.000
    N19     N    0.25014   0.40651   0.09337   1.000
    N20     N    0.75009   0.40650   0.59343   1.000
    N21     N    0.25002   0.13782   0.13781   1.000
    N22     N    0.74997   0.13787   0.63778   1.000
    N23     N    0.75011   0.63778   0.13787   1.000
    N24     N    0.75004   0.63783   0.63782   1.000
    N25     N    0.24997   0.90652   0.59348   1.000
    N26     N    0.24995   0.13787   0.63778   1.000
    N27     N    0.25002   0.63783   0.63782   1.000
    N28     N    0.75004   0.13782   0.13781   1.000
    N29     N    0.25007   0.40650   0.59343   1.000
    Zr30    Zr   0.05413   0.74996   0.00000   1.000
    O31     O    0.96811   0.71805   0.04408   1.000
    O32     O    0.11519   0.70178   0.97760   1.000
    O33     O    0.96809   0.78187   0.95593   1.000
    O34     O    0.11519   0.79816   0.02239   1.000
    Zr35    Zr   0.94593   0.99997   0.25000   1.000
    O36     O    0.88484   0.02238   0.29817   1.000
    O37     O    0.03194   0.95587   0.28192   1.000
    O38     O    0.03199   0.04404   0.21809   1.000
    Zr39    Zr   0.05413   0.74996   0.50001   1.000
    O40     O    0.96808   0.71807   0.54407   1.000
    O41     O    0.11516   0.70177   0.47759   1.000
    O42     O    0.11518   0.79815   0.52243   1.000
    O43     O    0.96808   0.78186   0.45593   1.000
    Zr44    Zr   0.44591   0.99997   0.25000   1.000
    O45     O    0.53199   0.04404   0.21809   1.000
    O46     O    0.38482   0.02239   0.29816   1.000
    O47     O    0.53194   0.95587   0.28191   1.000
    O48     O    0.38487   0.97758   0.20179   1.000
    Zr49    Zr   0.05412   0.24998   0.49997   1.000
    O50     O    0.11520   0.29815   0.52239   1.000
    O51     O    0.11513   0.20176   0.47755   1.000
    O52     O    0.96804   0.21810   0.54402   1.000
    O53     O    0.96809   0.28188   0.45589   1.000
    Zr54    Zr   0.55414   0.74997   0.90000   1.000
    O55     O    0.46808   0.78187   0.89343   1.000
    O56     O    0.61620   0.70532   0.90170   1.000
    Zr57    Zr   0.94592   0.49997   0.24999   1.000
    O58     O    0.88485   0.52240   0.29816   1.000
    O59     O    0.03195   0.45588   0.28190   1.000
    O60     O    0.88491   0.47755   0.20178   1.000
    Zr61    Zr   0.94593   0.50001   0.74999   1.000
    O62     O    0.03198   0.54407   0.71808   1.000
    O63     O    0.88489   0.47757   0.70180   1.000
    O64     O    0.03198   0.45593   0.78188   1.000
    O65     O    0.88489   0.52243   0.79818   1.000
    Zr66    Zr   0.44591   0.00003   0.75000   1.000
    O67     O    0.53195   0.04410   0.71807   1.000
    O68     O    0.38486   0.02241   0.79820   1.000
    O69     O    0.53197   0.95594   0.78190   1.000
    O70     O    0.38484   0.97759   0.70182   1.000
    Zr71    Zr   0.55413   0.24999   0.99996   1.000
    O72     O    0.61516   0.20177   0.97759   1.000
    O73     O    0.61523   0.29816   0.02237   1.000
    O74     O    0.46805   0.21809   0.04402   1.000
    O75     O    0.46811   0.28190   0.95587   1.000
    Zr76    Zr   0.55414   0.24998   0.49997   1.000
    O77     O    0.46810   0.28188   0.45589   1.000
    O78     O    0.46804   0.21810   0.54402   1.000
    O79     O    0.61515   0.20176   0.47757   1.000
    O80     O    0.61522   0.29815   0.52239   1.000
    Zr81    Zr   0.55415   0.74996   0.50001   1.000
    O82     O    0.61518   0.70177   0.47759   1.000
    O83     O    0.46808   0.71807   0.54407   1.000
    O84     O    0.46809   0.78186   0.45594   1.000
    O85     O    0.61520   0.79815   0.52243   1.000
    Zr86    Zr   0.44591   0.49997   0.24999   1.000
    O87     O    0.53201   0.54402   0.21810   1.000
    O88     O    0.38483   0.52240   0.29816   1.000
    O89     O    0.38490   0.47755   0.20178   1.000
    O90     O    0.53195   0.45588   0.28190   1.000
    Zr91    Zr   0.44591   0.50001   0.74999   1.000
    O92     O    0.38487   0.52243   0.79818   1.000
    O93     O    0.53197   0.54407   0.71808   1.000
    O94     O    0.38487   0.47757   0.70180   1.000
    O95     O    0.53198   0.45593   0.78188   1.000
    Zr96    Zr   0.94593   0.00003   0.75000   1.000
    O97     O    0.03195   0.04410   0.71807   1.000
    O98     O    0.03198   0.95594   0.78190   1.000
    O99     O    0.88488   0.02241   0.79820   1.000
    O100    O    0.88486   0.97759   0.70183   1.000
    Zr101   Zr   0.05411   0.24999   0.99996   1.000
    O102    O    0.96805   0.21809   0.04402   1.000
    O103    O    0.11521   0.29816   0.02237   1.000
    O104    O    0.11515   0.20177   0.97759   1.000
    O105    O    0.96810   0.28190   0.95587   1.000
loop_
    _geom_bond_atom_site_label_1
    _geom_bond_atom_site_label_2
    _geom_bond_distance
    _geom_bond_site_symmetry_2
    _ccdc_geom_bond_type
    Zr30   O31       1.55065  1_455   S
    N23    O31       3.74566      .   S
    Zr30   O32       1.55188  1_554   S
    N11    O32       3.73751      .   S
    Zr30   O33       1.55020  1_454   S
    N7     O33       3.74488      .   S
    Zr30   O34       1.55207      .   S
    N0     O34       3.73785      .   S
    Zr35   O36       1.55239  1_565   S
    N14    O36       3.73862      .   S
    Zr35   O37       1.55026  1_655   S
    N2     O37       3.74484      .   S
    Zr35   O38       1.55069  1_665   S
    N21    O38       3.74587      .   S
    Zr39   O40       1.55059  1_455   S
    N24    O40       3.74567      .   S
    Zr39   O41       1.55207      .   S
    N10    O41       3.73783      .   S
    Zr39   O42       1.55203      .   S
    N25    O42       3.73776      .   S
    Zr39   O43       1.55038  1_455   S
    N6     O43       3.74523      .   S
    Zr44   O45       1.55082  1_565   S
    N28    O45       3.74611      .   S
    Zr44   O46       1.55219  1_565   S
    N8     O46       3.73802      .   S
    Zr44   O47       1.55034      .   S
    N6     O47       3.74486      .   S
    Zr44   O48       1.55227      .   S
    N0     O48       3.73829      .   S
    Zr49   O50       1.55200      .   S
    N29    O50       3.73766      .   S
    Zr49   O51       1.55222      .   S
    N8     O51       3.73832      .   S
    Zr49   O52       1.55071  1_455   S
    N22    O52       3.74590      .   S
    Zr49   O53       1.55019  1_455   S
    N4     O53       3.74474      .   S
    Zr54   O55       1.35205      .   S
    N3     O55       3.41831      .   S
    Zr54   O56       1.29358      .   S
    N17    O56       3.05491      .   S
    Zr57   O58       1.55254      .   S
    N16    O58       3.73883      .   S
    Zr57   O59       1.55016  1_655   S
    N13    O59       3.74468      .   S
    Zr57   O60       1.55229      .   S
    N18    O60       3.73828      .   S
    Zr61   O62       1.55057  1_655   S
    N27    O62       3.74561      .   S
    Zr61   O63       1.55233      .   S
    N20    O63       3.73837      .   S
    Zr61   O64       1.55025  1_655   S
    N1     O64       3.74488      .   S
    Zr61   O65       1.55252      .   S
    N17    O65       3.73882      .   S
    Zr66   O67       1.55071      .   S
    N22    O67       3.74573      .   S
    Zr66   O68       1.55237      .   S
    N9     O68       3.73862      .   S
    Zr66   O69       1.55052  1_545   S
    N7     O69       3.74534      .   S
    Zr66   O70       1.55228  1_545   S
    N25    O70       3.73830      .   S
    Zr71   O72       1.55202      .   S
    N15    O72       3.73777      .   S
    Zr71   O73       1.55199  1_556   S
    N18    O73       3.73765      .   S
    Zr71   O74       1.55084  1_556   S
    N21    O74       3.74608      .   S
    Zr71   O75       1.55023      .   S
    N1     O75       3.74483      .   S
    Zr76   O77       1.55033      .   S
    N13    O77       3.74499      .   S
    Zr76   O78       1.55085      .   S
    N26    O78       3.74614      .   S
    Zr76   O79       1.55209      .   S
    N14    O79       3.73785      .   S
    Zr76   O80       1.55201      .   S
    N20    O80       3.73769      .   S
    Zr81   O82       1.55207      .   S
    N16    O82       3.73782      .   S
    Zr81   O83       1.55073      .   S
    N27    O83       3.74591      .   S
    Zr81   O84       1.55040      .   S
    N2     O84       3.74518      .   S
    Zr81   O85       1.55203      .   S
    N12    O85       3.73777      .   S
    Zr86   O87       1.55084      .   S
    N23    O87       3.74615      .   S
    Zr86   O88       1.55254      .   S
    N10    O88       3.73882      .   S
    Zr86   O89       1.55229      .   S
    N19    O89       3.73828      .   S
    Zr86   O90       1.55030      .   S
    N4     O90       3.74493      .   S
    Zr91   O92       1.55248      .   S
    N11    O92       3.73870      .   S
    Zr91   O93       1.55070      .   S
    N24    O93       3.74586      .   S
    Zr91   O94       1.55234      .   S
    N29    O94       3.73840      .   S
    Zr91   O95       1.55038      .   S
    N5     O95       3.74510      .   S
    Zr96   O97       1.55057  1_655   S
    N26    O97       3.74549      .   S
    Zr96   O98       1.55038  1_645   S
    N3     O98       3.74513      .   S
    Zr96   O99       1.55237      .   S
    N15    O99       3.73862      .   S
    Zr96   O100      1.55228  1_545   S
    N12    O100      3.73828      .   S
    Zr101  O102      1.55070  1_456   S
    N28    O102      3.74584      .   S
    Zr101  O103      1.55198  1_556   S
    N19    O103      3.73765      .   S
    Zr101  O104      1.55202      .   S
    N9     O104      3.73777      .   S
    Zr101  O105      1.55011  1_455   S
    N5     O105      3.74462      .   S
