# CIF file generated by openbabel 2.4.90, see http://openbabel.sf.net
data_I
_chemical_name_common ''
_cell_length_a 13.592
_cell_length_b 22.212
_cell_length_c 22.222
_cell_angle_alpha 72.165
_cell_angle_beta 90.017
_cell_angle_gamma 89.997
_space_group_name_H-M_alt 'P 1'
_space_group_name_Hall 'P 1'
loop_
    _symmetry_equiv_pos_as_xyz
    x,y,z
loop_
    _atom_site_label
    _atom_site_type_symbol
    _atom_site_fract_x
    _atom_site_fract_y
    _atom_site_fract_z
    _atom_site_occupancy
    Zr0     Zr   0.44591   0.99997   0.25000   1.000
    Zr1     Zr   0.44591   0.00003   0.75000   1.000
    Zr2     Zr   0.44591   0.49997   0.24999   1.000
    Zr3     Zr   0.44591   0.50001   0.74999   1.000
    Zr4     Zr   0.94593   0.99997   0.25000   1.000
    Zr5     Zr   0.94593   0.00003   0.75000   1.000
    Zr6     Zr   0.94592   0.49997   0.24999   1.000
    Zr7     Zr   0.94593   0.50001   0.74999   1.000
    Zr8     Zr   0.05411   0.24999   0.99996   1.000
    Zr9     Zr   0.05412   0.24998   0.49997   1.000
    Zr10    Zr   0.05413   0.74996   0.50001   1.000
    Zr11    Zr   0.05413   0.74996   0.00000   1.000
    Zr12    Zr   0.55413   0.24999   0.99996   1.000
    Zr13    Zr   0.55414   0.24998   0.49997   1.000
    Zr14    Zr   0.55415   0.74996   0.50001   1.000
    Zr15    Zr   0.55414   0.74997   0.90000   1.000
    N16     N    0.25004   0.90657   0.09338   1.000
    O17     O    0.32384   0.95518   0.15358   1.000
    O18     O    0.17624   0.84637   0.04479   1.000
    N19     N    0.25008   0.36217   0.86209   1.000
    O20     O    0.11804   0.41186   0.81378   1.000
    O21     O    0.38209   0.31382   0.91178   1.000
    N22     N    0.24998   0.86208   0.36218   1.000
    O23     O    0.11796   0.91177   0.31384   1.000
    O24     O    0.38202   0.81376   0.41187   1.000
    N25     N    0.25003   0.86214   0.86216   1.000
    O26     O    0.11803   0.91185   0.81381   1.000
    O27     O    0.38203   0.81378   0.88687   1.000
    N28     N    0.75004   0.36211   0.36212   1.000
    O29     O    0.61799   0.41179   0.31381   1.000
    O30     O    0.88207   0.31379   0.41181   1.000
    N31     N    0.75009   0.36217   0.86209   1.000
    O32     O    0.61805   0.41186   0.81378   1.000
    O33     O    0.88209   0.31382   0.91178   1.000
    N34     N    0.75000   0.86208   0.36213   1.000
    O35     O    0.61797   0.91178   0.31381   1.000
    O36     O    0.88203   0.81376   0.41184   1.000
    N37     N    0.75005   0.86214   0.86216   1.000
    O38     O    0.61804   0.91185   0.81381   1.000
    O39     O    0.88204   0.81377   0.91187   1.000
    N40     N    0.24989   0.09338   0.40649   1.000
    O41     O    0.32373   0.04480   0.34631   1.000
    O42     O    0.17614   0.15355   0.45514   1.000
    N43     N    0.25000   0.09337   0.90662   1.000
    O44     O    0.32381   0.04480   0.84640   1.000
    O45     O    0.17618   0.15355   0.95521   1.000
    N46     N    0.24996   0.59342   0.40653   1.000
    O47     O    0.32375   0.54483   0.34633   1.000
    O48     O    0.17618   0.65357   0.45517   1.000
    N49     N    0.25008   0.59345   0.90658   1.000
    O50     O    0.32383   0.54486   0.84636   1.000
    O51     O    0.17625   0.65360   0.95520   1.000
    N52     N    0.74999   0.90652   0.59348   1.000
    O53     O    0.82379   0.95516   0.65365   1.000
    O54     O    0.67625   0.84633   0.54486   1.000
    N55     N    0.25002   0.36211   0.36212   1.000
    O56     O    0.11798   0.41179   0.31381   1.000
    O57     O    0.38206   0.31379   0.41181   1.000
    N58     N    0.74991   0.09338   0.40654   1.000
    O59     O    0.82374   0.04480   0.34634   1.000
    O60     O    0.67615   0.15355   0.45516   1.000
    N61     N    0.75002   0.09337   0.90662   1.000
    O62     O    0.82383   0.04480   0.84640   1.000
    O63     O    0.67620   0.15355   0.95521   1.000
    N64     N    0.74997   0.59342   0.40653   1.000
    O65     O    0.82377   0.54483   0.34633   1.000
    O66     O    0.67620   0.65357   0.45517   1.000
    N67     N    0.75010   0.59345   0.90659   1.000
    O68     O    0.82385   0.54486   0.84637   1.000
    O69     O    0.67826   0.66068   0.90341   1.000
    N70     N    0.75016   0.40651   0.09337   1.000
    O71     O    0.82390   0.45513   0.15357   1.000
    O72     O    0.67633   0.34633   0.04477   1.000
    N73     N    0.25014   0.40651   0.09337   1.000
    O74     O    0.32388   0.45513   0.15357   1.000
    O75     O    0.17631   0.34633   0.04477   1.000
    N76     N    0.75009   0.40650   0.59343   1.000
    O77     O    0.82385   0.45513   0.65362   1.000
    O78     O    0.67630   0.34632   0.54482   1.000
    N79     N    0.75006   0.90657   0.09337   1.000
    O80     O    0.82386   0.95518   0.15358   1.000
    N81     N    0.25002   0.13782   0.13781   1.000
    O82     O    0.11806   0.08810   0.18619   1.000
    O83     O    0.38198   0.18620   0.08808   1.000
    N84     N    0.74997   0.13787   0.63778   1.000
    O85     O    0.61799   0.08818   0.68614   1.000
    O86     O    0.88196   0.18623   0.58807   1.000
    N87     N    0.75011   0.63778   0.13787   1.000
    O88     O    0.61811   0.58808   0.18622   1.000
    O89     O    0.88208   0.68615   0.08816   1.000
    N90     N    0.75004   0.63783   0.63782   1.000
    O91     O    0.61804   0.58814   0.68618   1.000
    O92     O    0.88202   0.68618   0.58812   1.000
    N93     N    0.24997   0.90652   0.59348   1.000
    O94     O    0.32378   0.95516   0.65365   1.000
    O95     O    0.17623   0.84633   0.54486   1.000
    N96     N    0.24995   0.13787   0.63778   1.000
    O97     O    0.11798   0.08818   0.68614   1.000
    O98     O    0.38195   0.18623   0.58807   1.000
    N99     N    0.25009   0.63778   0.13787   1.000
    O100    O    0.11810   0.58808   0.18622   1.000
    N101    N    0.25002   0.63783   0.63782   1.000
    O102    O    0.11803   0.58814   0.68618   1.000
    O103    O    0.38201   0.68618   0.58812   1.000
    N104    N    0.75004   0.13782   0.13781   1.000
    O105    O    0.61806   0.08810   0.18619   1.000
    O106    O    0.88199   0.18620   0.08808   1.000
    N107    N    0.25007   0.40650   0.59343   1.000
    O108    O    0.32383   0.45513   0.65361   1.000
    O109    O    0.17628   0.34632   0.54481   1.000
loop_
    _geom_bond_atom_site_label_1
    _geom_bond_atom_site_label_2
    _geom_bond_distance
    _geom_bond_site_symmetry_2
    _ccdc_geom_bond_type
    N16    O17       2.20121      .   S
    Zr0    O17       3.10454      .   S
    N16    O18       2.20097      .   S
    Zr11   O18       3.10415      .   S
    N19    O20       2.20554      .   S
    Zr7    O20       3.10050  1_655   S
    N19    O21       2.20554      .   S
    Zr12   O21       3.10047      .   S
    N22    O23       2.20553      .   S
    Zr4    O23       3.10053  1_655   S
    N22    O24       2.20569      .   S
    Zr14   O24       3.10081      .   S
    N25    O26       2.20567      .   S
    Zr5    O26       3.10075  1_645   S
    N25    O27       2.07659      .   S
    Zr15   O27       2.70410      .   S
    N28    O29       2.20558      .   S
    Zr2    O29       3.10060      .   S
    N28    O30       2.20550      .   S
    Zr9    O30       3.10037  1_455   S
    N31    O32       2.20563      .   S
    Zr3    O32       3.10076      .   S
    N31    O33       2.20546      .   S
    Zr8    O33       3.10022  1_455   S
    N34    O35       2.20547      .   S
    Zr0    O35       3.10068      .   S
    N34    O36       2.20576      .   S
    Zr10   O36       3.10077  1_455   S
    N37    O38       2.20573      .   S
    Zr1    O38       3.10103  1_545   S
    N37    O39       2.20558      .   S
    Zr11   O39       3.10040  1_454   S
    N40    O41       2.20096      .   S
    Zr0    O41       3.10439  1_565   S
    N40    O42       2.20132      .   S
    Zr9    O42       3.10445      .   S
    N43    O44       2.20141      .   S
    Zr1    O44       3.10474      .   S
    N43    O45       2.20096      .   S
    Zr8    O45       3.10404      .   S
    N46    O47       2.20140      .   S
    Zr2    O47       3.10507      .   S
    N46    O48       2.20098      .   S
    Zr10   O48       3.10414      .   S
    N49    O50       2.20136      .   S
    Zr3    O50       3.10497      .   S
    N49    O51       2.20085      .   S
    Zr11   O51       3.10376  1_554   S
    N52    O53       2.20118      .   S
    Zr5    O53       3.10455  1_545   S
    N52    O54       2.20094      .   S
    Zr14   O54       3.10406      .   S
    N55    O56       2.20547      .   S
    Zr6    O56       3.10032  1_655   S
    N55    O57       2.20561      .   S
    Zr13   O57       3.10065      .   S
    N58    O59       2.20136      .   S
    Zr4    O59       3.10479  1_565   S
    N58    O60       2.20098      .   S
    Zr13   O60       3.10418      .   S
    N61    O62       2.20141      .   S
    Zr5    O62       3.10473      .   S
    N61    O63       2.20096      .   S
    Zr12   O63       3.10405      .   S
    N64    O65       2.20141      .   S
    Zr6    O65       3.10508      .   S
    N64    O66       2.20097      .   S
    Zr14   O66       3.10413      .   S
    N67    O68       2.20144      .   S
    Zr7    O68       3.10505      .   S
    N67    O69       1.76718      .   S
    Zr15   O69       2.58715      .   S
    N70    O71       2.20117      .   S
    Zr6    O71       3.10458      .   S
    N70    O72       2.20086      .   S
    Zr12   O72       3.10398  1_556   S
    N73    O74       2.20117      .   S
    Zr2    O74       3.10458      .   S
    N73    O75       2.20085      .   S
    Zr8    O75       3.10397  1_556   S
    N76    O77       2.20121      .   S
    Zr7    O77       3.10466      .   S
    N76    O78       2.20088      .   S
    Zr13   O78       3.10402      .   S
    N79    O80       2.20125      .   S
    Zr4    O80       3.10458      .   S
    N81    O82       2.20604      .   S
    Zr4    O82       3.10137  1_665   S
    N81    O83       2.20610      .   S
    Zr12   O83       3.10167  1_556   S
    N84    O85       2.20592      .   S
    Zr1    O85       3.10141      .   S
    N84    O86       2.20605      .   S
    Zr9    O86       3.10142  1_455   S
    N87    O88       2.20616      .   S
    Zr2    O88       3.10168      .   S
    N87    O89       2.20593      .   S
    Zr11   O89       3.10130  1_455   S
    N90    O91       2.20604      .   S
    Zr3    O91       3.10141      .   S
    N90    O92       2.20596      .   S
    Zr10   O92       3.10119  1_455   S
    N93    O94       2.20118      .   S
    Zr1    O94       3.10456  1_545   S
    N93    O95       2.20094      .   S
    Zr10   O95       3.10405      .   S
    N96    O97       2.20582      .   S
    Zr5    O97       3.10114  1_655   S
    N96    O98       2.20614      .   S
    Zr13   O98       3.10169      .   S
    N99    O100      2.20606      .   S
    Zr6    O100      3.10141  1_655   S
    N101   O102      2.20594      .   S
    Zr7    O102      3.10113  1_655   S
    N101   O103      2.20606      .   S
    Zr14   O103      3.10147      .   S
    N104   O105      2.20614      .   S
    Zr0    O105      3.10165  1_565   S
    N104   O106      2.20601      .   S
    Zr8    O106      3.10140  1_456   S
    N107   O108      2.20122      .   S
    Zr3    O108      3.10468      .   S
    N107   O109      2.20085      .   S
    Zr9    O109      3.10400      .   S
