# CIF file generated by openbabel 2.4.90, see http://openbabel.sf.net
data_I
_chemical_name_common ''
_cell_length_a 18.405
_cell_length_b 18.418
_cell_length_c 18.418
_cell_angle_alpha 60.252
_cell_angle_beta 60.269
_cell_angle_gamma 60.269
_space_group_name_H-M_alt 'P 1'
_space_group_name_Hall 'P 1'
loop_
    _symmetry_equiv_pos_as_xyz
    x,y,z
loop_
    _atom_site_label
    _atom_site_type_symbol
    _atom_site_fract_x
    _atom_site_fract_y
    _atom_site_fract_z
    _atom_site_occupancy
    N0      N    0.50001   0.49998   0.99999   1.000
    N1      N    0.00001   0.99998   0.49998   1.000
    N2      N    0.00001   0.49998   0.99999   1.000
    N3      N    0.50001   0.99998   0.49999   1.000
    N4      N    0.00001   0.49998   0.49995   1.000
    N5      N    0.50001   0.99998   0.99999   1.000
    Zr6     Zr   0.24999   0.24996   0.24996   1.000
    Zr7     Zr   0.75003   0.75000   0.75002   1.000
    O8      O    0.83259   0.66753   0.83257   1.000
    O9      O    0.66746   0.83249   0.66747   1.000
    O10     O    0.83254   0.66743   0.66744   1.000
    O11     O    0.66754   0.83257   0.83258   1.000
    O12     O    0.66746   0.66745   0.83251   1.000
    O13     O    0.83259   0.83255   0.66755   1.000
    O14     O    0.16743   0.33243   0.16741   1.000
    O15     O    0.33256   0.16747   0.33251   1.000
    O16     O    0.16748   0.33253   0.33252   1.000
    O17     O    0.33248   0.16739   0.16739   1.000
    O18     O    0.33256   0.33251   0.16747   1.000
    O19     O    0.16743   0.16741   0.33243   1.000
loop_
    _geom_bond_atom_site_label_1
    _geom_bond_atom_site_label_2
    _geom_bond_distance
    _geom_bond_site_symmetry_2
    _ccdc_geom_bond_type
    Zr7    O8        2.15364      .   S
    N2     O8        4.36757  1_455   S
    Zr7    O9        2.15384      .   S
    N3     O9        4.36872      .   S
    Zr7    O10       2.15551      .   S
    N4     O10       4.37154  1_455   S
    Zr7    O11       2.15518      .   S
    N5     O11       4.36992      .   S
    Zr7    O12       2.15382      .   S
    N0     O12       4.36866      .   S
    Zr7    O13       2.15363      .   S
    N1     O13       4.36762  1_455   S
    N2     O14       4.36751  1_556   S
    Zr6    O14       2.15357      .   S
    N3     O15       4.36872  1_565   S
    Zr6    O15       2.15386      .   S
    N4     O16       4.37076      .   S
    Zr6    O16       2.15526      .   S
    Zr6    O17       2.15516      .   S
    N5     O17       4.36990  1_566   S
    Zr6    O18       2.15382      .   S
    N0     O18       4.36866  1_556   S
    Zr6    O19       2.15363      .   S
    N1     O19       4.36762  1_565   S
