# CIF file generated by openbabel 2.4.90, see http://openbabel.sf.net
data_I
_chemical_name_common ''
_cell_length_a 18.405
_cell_length_b 18.418
_cell_length_c 18.418
_cell_angle_alpha 60.252
_cell_angle_beta 60.269
_cell_angle_gamma 60.269
_space_group_name_H-M_alt 'P 1'
_space_group_name_Hall 'P 1'
loop_
    _symmetry_equiv_pos_as_xyz
    x,y,z
loop_
    _atom_site_label
    _atom_site_type_symbol
    _atom_site_fract_x
    _atom_site_fract_y
    _atom_site_fract_z
    _atom_site_occupancy
    N0      N    0.50001   0.49998   0.99999   1.000
    N1      N    0.00001   0.99998   0.49998   1.000
    N2      N    0.00001   0.49998   0.99999   1.000
    N3      N    0.50001   0.99998   0.49999   1.000
    N4      N    0.00001   0.49998   0.49995   1.000
    N5      N    0.50001   0.99998   0.99999   1.000
    Zr6     Zr   0.24999   0.24996   0.24996   1.000
    O7      O    0.18599   0.33242   0.14886   1.000
    O8      O    0.33248   0.18594   0.14885   1.000
    O9      O    0.33250   0.33244   0.14889   1.000
    O10     O    0.33250   0.14888   0.33245   1.000
    O11     O    0.33248   0.14885   0.18594   1.000
    O12     O    0.18599   0.14886   0.33243   1.000
    O13     O    0.14886   0.18596   0.33243   1.000
    O14     O    0.14888   0.33247   0.33246   1.000
    O15     O    0.14886   0.33243   0.18596   1.000
    O16     O    0.33262   0.33257   0.18606   1.000
    O17     O    0.33262   0.18606   0.33258   1.000
    O18     O    0.18608   0.33259   0.33258   1.000
    Zr19    Zr   0.75003   0.75000   0.75002   1.000
    O20     O    0.81403   0.85110   0.66755   1.000
    O21     O    0.66752   0.85108   0.66753   1.000
    O22     O    0.66754   0.85111   0.81404   1.000
    O23     O    0.66740   0.81390   0.66740   1.000
    O24     O    0.81394   0.66738   0.66738   1.000
    O25     O    0.66740   0.66739   0.81392   1.000
    O26     O    0.66754   0.81402   0.85113   1.000
    O27     O    0.66752   0.66752   0.85110   1.000
    O28     O    0.81403   0.66754   0.85112   1.000
    O29     O    0.85114   0.66749   0.66750   1.000
    O30     O    0.85116   0.66753   0.81402   1.000
    O31     O    0.85116   0.81400   0.66754   1.000
loop_
    _geom_bond_atom_site_label_1
    _geom_bond_atom_site_label_2
    _geom_bond_distance
    _geom_bond_site_symmetry_2
    _ccdc_geom_bond_type
    Zr6    O7        2.18073      .   S
    N2     O7        4.38092  1_556   S
    Zr6    O8        2.18229      .   S
    N5     O8        4.38330  1_566   S
    Zr6    O9        2.18113      .   S
    N0     O9        4.38178  1_556   S
    Zr6    O10       2.18120      .   S
    N3     O10       4.38183  1_565   S
    Zr6    O11       2.18223      .   S
    N5     O11       4.38335  1_566   S
    Zr6    O12       2.18081      .   S
    N1     O12       4.38102  1_565   S
    Zr6    O13       2.18076      .   S
    N1     O13       4.38112  1_565   S
    Zr6    O14       2.18256      .   S
    N4     O14       4.38389      .   S
    Zr6    O15       2.18071      .   S
    N2     O15       4.38100  1_556   S
    Zr6    O16       2.18094      .   S
    N0     O16       4.38250  1_556   S
    Zr6    O17       2.18097      .   S
    N3     O17       4.38258  1_565   S
    Zr6    O18       2.18234      .   S
    N4     O18       4.38457      .   S
    Zr19   O20       2.18080      .   S
    N1     O20       4.38102  1_455   S
    Zr19   O21       2.18116      .   S
    N3     O21       4.38186      .   S
    Zr19   O22       2.18228      .   S
    N5     O22       4.38334      .   S
    Zr19   O23       2.18098      .   S
    N3     O23       4.38255      .   S
    Zr19   O24       2.18263      .   S
    N4     O24       4.38530  1_455   S
    Zr19   O25       2.18094      .   S
    N0     O25       4.38251      .   S
    Zr19   O26       2.18227      .   S
    N5     O26       4.38336      .   S
    Zr19   O27       2.18115      .   S
    N0     O27       4.38178      .   S
    Zr19   O28       2.18082      .   S
    N2     O28       4.38097  1_455   S
    Zr19   O29       2.18276      .   S
    N4     O29       4.38473  1_455   S
    Zr19   O30       2.18077      .   S
    N2     O30       4.38108  1_455   S
    Zr19   O31       2.18076      .   S
    N1     O31       4.38112  1_455   S
