# CIF file generated by openbabel 2.4.90, see http://openbabel.sf.net
data_I
_chemical_name_common ''
_cell_length_a 9.73
_cell_length_b 13.257
_cell_length_c 20.935
_cell_angle_alpha 86.324
_cell_angle_beta 80.17
_cell_angle_gamma 68.899
_space_group_name_H-M_alt 'P 1'
_space_group_name_Hall 'P 1'
loop_
    _symmetry_equiv_pos_as_xyz
    x,y,z
loop_
    _atom_site_label
    _atom_site_type_symbol
    _atom_site_fract_x
    _atom_site_fract_y
    _atom_site_fract_z
    _atom_site_occupancy
    Mc0     Mc   0.63923   0.46195   0.11789   1.000
    Mc1     Mc   0.65147   0.97982   0.12995   1.000
    Mc2     Mc   0.86913   0.97985   0.37067   1.000
    Mc3     Mc   0.39985   0.46110   0.38137   1.000
    Mc4     Mc   0.60004   0.53897   0.61864   1.000
    Mc5     Mc   0.13079   0.02023   0.62934   1.000
    Mc6     Mc   0.34845   0.02025   0.87006   1.000
    Mc7     Mc   0.36069   0.53811   0.88212   1.000
