# CIF file generated by openbabel 2.4.90, see http://openbabel.sf.net
data_I
_chemical_name_common ''
_cell_length_a 9.73
_cell_length_b 13.257
_cell_length_c 20.935
_cell_angle_alpha 86.324
_cell_angle_beta 80.17
_cell_angle_gamma 68.899
_space_group_name_H-M_alt 'P 1'
_space_group_name_Hall 'P 1'
loop_
    _symmetry_equiv_pos_as_xyz
    x,y,z
loop_
    _atom_site_label
    _atom_site_type_symbol
    _atom_site_fract_x
    _atom_site_fract_y
    _atom_site_fract_z
    _atom_site_occupancy
    H0      H    0.38983   0.64540   0.04673   1.000
    H1      H    0.37014   0.49600   0.12312   1.000
    H2      H    0.84464   0.40305   0.12541   1.000
    H3      H    0.84487   0.55116   0.04892   1.000
    H4      H    0.76257   0.33109   0.22800   1.000
    H5      H    0.78590   0.24074   0.16272   1.000
    H6      H    0.51368   0.11513   0.24281   1.000
    H7      H    0.53274   0.19849   0.17303   1.000
    H8      H    0.92030   0.87793   0.13812   1.000
    H9      H    0.87997   0.75276   0.06534   1.000
    H10     H    0.44280   0.95552   0.06219   1.000
    H11     H    0.46402   0.08991   0.13176   1.000
    H12     H    0.46369   0.64338   0.45569   1.000
    H13     H    0.63456   0.49508   0.38022   1.000
    H14     H    0.25374   0.40336   0.36993   1.000
    H15     H    0.10334   0.54995   0.44606   1.000
    H16     H    0.41086   0.32948   0.27130   1.000
    H17     H    0.47586   0.23974   0.33717   1.000
    H18     H    0.87236   0.11623   0.25838   1.000
    H19     H    0.77106   0.20049   0.32746   1.000
    H20     H    0.70086   0.87796   0.36224   1.000
    H21     H    0.86646   0.75064   0.43362   1.000
    H22     H    0.10266   0.95435   0.43835   1.000
    H23     H    0.94715   0.09079   0.36990   1.000
    H24     H    0.61011   0.35467   0.95327   1.000
    H25     H    0.62978   0.50407   0.87688   1.000
    H26     H    0.15528   0.59700   0.87461   1.000
    H27     H    0.15507   0.44890   0.95109   1.000
    H28     H    0.23733   0.66899   0.77201   1.000
    H29     H    0.21402   0.75933   0.83729   1.000
    H30     H    0.48624   0.88494   0.75720   1.000
    H31     H    0.46717   0.80158   0.82699   1.000
    H32     H    0.07963   0.12215   0.86189   1.000
    H33     H    0.11996   0.24731   0.93467   1.000
    H34     H    0.55713   0.04454   0.93783   1.000
    H35     H    0.53590   0.91015   0.86825   1.000
    H36     H    0.53620   0.35668   0.54432   1.000
    H37     H    0.36533   0.50500   0.61979   1.000
    H38     H    0.74616   0.59670   0.63008   1.000
    H39     H    0.89656   0.45011   0.55395   1.000
    H40     H    0.58904   0.67058   0.72870   1.000
    H41     H    0.52405   0.76034   0.66284   1.000
    H42     H    0.12755   0.88386   0.74163   1.000
    H43     H    0.22884   0.79959   0.67255   1.000
    H44     H    0.29905   0.12212   0.63777   1.000
    H45     H    0.13344   0.24944   0.56638   1.000
    H46     H    0.89726   0.04571   0.56166   1.000
    H47     H    0.05277   0.90929   0.63011   1.000
    C48     C    0.48627   0.59079   0.06668   1.000
    C49     C    0.47565   0.50872   0.10885   1.000
    C50     C    0.60348   0.44073   0.13340   1.000
    C51     C    0.73966   0.45486   0.11089   1.000
    C52     C    0.74055   0.53900   0.06798   1.000
    C53     C    0.70736   0.28966   0.20299   1.000
    C54     C    0.58980   0.14849   0.21129   1.000
    C55     C    0.69392   0.99281   0.14343   1.000
    C56     C    0.81209   0.89649   0.12309   1.000
    C57     C    0.78979   0.82728   0.08248   1.000
    C58     C    0.54620   0.94105   0.08066   1.000
    C59     C    0.55818   0.01479   0.12122   1.000
    C60     C    0.42246   0.58941   0.43420   1.000
    C61     C    0.51617   0.50793   0.39248   1.000
    C62     C    0.45717   0.44051   0.36608   1.000
    C63     C    0.30636   0.45460   0.38631   1.000
    C64     C    0.22027   0.53809   0.42895   1.000
    C65     C    0.50622   0.28900   0.29687   1.000
    C66     C    0.76343   0.14976   0.28967   1.000
    C67     C    0.81335   0.99345   0.35773   1.000
    C68     C    0.79085   0.89634   0.37737   1.000
    C69     C    0.88249   0.82594   0.41723   1.000
    C70     C    0.01334   0.94019   0.41982   1.000
    C71     C    0.92760   0.01514   0.37996   1.000
    C72     C    0.51366   0.40927   0.93333   1.000
    C73     C    0.52428   0.49134   0.89116   1.000
    C74     C    0.39644   0.55933   0.86661   1.000
    C75     C    0.26027   0.54520   0.88912   1.000
    C76     C    0.25938   0.46105   0.93203   1.000
    C77     C    0.29255   0.71041   0.79702   1.000
    C78     C    0.41012   0.85158   0.78872   1.000
    C79     C    0.30600   0.00726   0.85658   1.000
    C80     C    0.18783   0.10358   0.87692   1.000
    C81     C    0.21014   0.17279   0.91753   1.000
    C82     C    0.45372   0.05901   0.91935   1.000
    C83     C    0.44174   0.98527   0.87879   1.000
    C84     C    0.57744   0.41066   0.56582   1.000
    C85     C    0.48373   0.49215   0.60753   1.000
    C86     C    0.54273   0.55957   0.63392   1.000
    C87     C    0.69354   0.54547   0.61370   1.000
    C88     C    0.77963   0.46198   0.57106   1.000
    C89     C    0.49368   0.71107   0.70313   1.000
    C90     C    0.23648   0.85032   0.71034   1.000
    C91     C    0.18656   0.00662   0.64228   1.000
    C92     C    0.20906   0.10374   0.62264   1.000
    C93     C    0.11742   0.17414   0.58277   1.000
    C94     C    0.98658   0.05988   0.58019   1.000
    C95     C    0.07232   0.98493   0.62004   1.000
    N96     N    0.61627   0.60831   0.04694   1.000
    N97     N    0.65817   0.84756   0.06125   1.000
    N98     N    0.27474   0.60683   0.45176   1.000
    N99     N    0.99443   0.84581   0.43848   1.000
    N100    N    0.38367   0.39174   0.95307   1.000
    N101    N    0.34176   0.15250   0.93877   1.000
    N102    N    0.72515   0.39324   0.54826   1.000
    N103    N    0.00549   0.15426   0.56153   1.000
    O104    O    0.58210   0.36776   0.17787   1.000
    O105    O    0.71897   0.05926   0.18266   1.000
    O106    O    0.55251   0.36804   0.32216   1.000
    O107    O    0.72174   0.06080   0.31912   1.000
    O108    O    0.41781   0.63231   0.82214   1.000
    O109    O    0.28095   0.94081   0.81735   1.000
    O110    O    0.44738   0.63204   0.67785   1.000
    O111    O    0.27818   0.93928   0.68089   1.000
loop_
    _geom_bond_atom_site_label_1
    _geom_bond_atom_site_label_2
    _geom_bond_distance
    _geom_bond_site_symmetry_2
    _ccdc_geom_bond_type
    H0     C48       1.08859      .   S
    N96    C48       1.35842      .   S
    N96    C52       1.35301      .   S
    H3     C52       1.08928      .   S
    N97    C58       1.35259      .   S
    N97    C57       1.35683      .   S
    H10    C58       1.08774      .   S
    H9     C57       1.09020      .   S
    C48    C49       1.37856      .   S
    C52    C51       1.38828      .   S
    C58    C59       1.38292  1_565   S
    C57    C56       1.38498      .   S
    C49    H1        1.08865      .   S
    C49    C50       1.40544      .   S
    C51    H2        1.08699      .   S
    C51    C50       1.40247      .   S
    C59    H11       1.08724      .   S
    C59    C55       1.40015  1_545   S
    C56    H8        1.08840      .   S
    C56    C55       1.40686      .   S
    C50    O104      1.34509      .   S
    C55    O105      1.35125  1_565   S
    H5     C53       1.09935      .   S
    H7     C54       1.09906      .   S
    O104   C53       1.44020      .   S
    O105   C54       1.44962      .   S
    C53    H4        1.09998      .   S
    C54    H6        1.10054      .   S
    H18    C66       1.10053      .   S
    H16    C65       1.09986      .   S
    C66    O107      1.44954      .   S
    C66    H19       1.09900      .   S
    C65    O106      1.43987      .   S
    C65    H17       1.09937      .   S
    O107   C67       1.35115  1_545   S
    O106   C62       1.34520      .   S
    C67    C68       1.40667      .   S
    C67    C71       1.39963  1_565   S
    H20    C68       1.08840      .   S
    C62    C63       1.40286      .   S
    C62    C61       1.40532      .   S
    H23    C71       1.08758      .   S
    H14    C63       1.08688      .   S
    C68    C69       1.38486      .   S
    C71    C70       1.38348  1_645   S
    H13    C61       1.08872      .   S
    C63    C64       1.38819      .   S
    C61    C60       1.37867      .   S
    C69    H21       1.09023      .   S
    C69    N99       1.35660      .   S
    C70    H22       1.08760      .   S
    C70    N99       1.35298  1_455   S
    C64    H15       1.08933      .   S
    C64    N98       1.35258      .   S
    C60    N98       1.35854      .   S
    C60    H12       1.08866      .   S
    H36    C84       1.08867      .   S
    N102   C84       1.35855      .   S
    N102   C88       1.35260      .   S
    H39    C88       1.08932      .   S
    N103   C94       1.35298  1_455   S
    N103   C93       1.35654      .   S
    H46    C94       1.08763      .   S
    C84    C85       1.37866      .   S
    H45    C93       1.09025      .   S
    C88    C87       1.38819      .   S
    C94    C95       1.38344  1_645   S
    C93    C92       1.38486      .   S
    C85    H37       1.08871      .   S
    C85    C86       1.40532      .   S
    C87    H38       1.08689      .   S
    C87    C86       1.40285      .   S
    C95    H47       1.08760      .   S
    C95    C91       1.39962  1_565   S
    C92    H44       1.08841      .   S
    C92    C91       1.40669      .   S
    C86    O110      1.34521      .   S
    C91    O111      1.35117  1_545   S
    H41    C89       1.09937      .   S
    H43    C90       1.09899      .   S
    O110   C89       1.43985      .   S
    O111   C90       1.44955      .   S
    C89    H40       1.09987      .   S
    C90    H42       1.10053      .   S
    H30    C78       1.10053      .   S
    H28    C77       1.09997      .   S
    C78    O109      1.44961      .   S
    C78    H31       1.09906      .   S
    C77    O108      1.44021      .   S
    C77    H29       1.09934      .   S
    O109   C79       1.35126  1_565   S
    O108   C74       1.34510      .   S
    C79    C80       1.40686      .   S
    C79    C83       1.40016  1_545   S
    H32    C80       1.08838      .   S
    C74    C75       1.40247      .   S
    C74    C73       1.40543      .   S
    H35    C83       1.08724      .   S
    H26    C75       1.08699      .   S
    H25    C73       1.08864      .   S
    C80    C81       1.38500      .   S
    C83    C82       1.38290  1_565   S
    C75    C76       1.38830      .   S
    C73    C72       1.37858      .   S
    C81    H33       1.09019      .   S
    C81    N101      1.35682      .   S
    C82    H34       1.08775      .   S
    C82    N101      1.35259      .   S
    C76    H27       1.08927      .   S
    C76    N100      1.35301      .   S
    C72    N100      1.35842      .   S
    C72    H24       1.08859      .   S
