# CIF file generated by openbabel 2.4.90, see http://openbabel.sf.net
data_I
_chemical_name_common ''
_cell_length_a 9.73
_cell_length_b 13.257
_cell_length_c 20.935
_cell_angle_alpha 86.324
_cell_angle_beta 80.17
_cell_angle_gamma 68.899
_space_group_name_H-M_alt 'P 1'
_space_group_name_Hall 'P 1'
loop_
    _symmetry_equiv_pos_as_xyz
    x,y,z
loop_
    _atom_site_label
    _atom_site_type_symbol
    _atom_site_fract_x
    _atom_site_fract_y
    _atom_site_fract_z
    _atom_site_occupancy
    H0      H    0.77477   0.85655   0.80779   1.000
    H1      H    0.96588   0.50998   0.81364   1.000
    H2      H    0.05793   0.84523   0.92673   1.000
    H3      H    0.19367   0.00000   0.06065   1.000
    H4      H    0.86469   0.85369   0.68874   1.000
    H5      H    0.04135   0.50673   0.69258   1.000
    H6      H    0.59658   0.84396   0.57259   1.000
    H7      H    0.29667   0.00000   0.44008   1.000
    H8      H    0.22515   0.14350   0.19223   1.000
    H9      H    0.03408   0.49007   0.18637   1.000
    H10     H    0.94201   0.15484   0.07328   1.000
    H11     H    0.80626   0.99167   0.93936   1.000
    H12     H    0.13522   0.14637   0.31128   1.000
    H13     H    0.95858   0.49333   0.30742   1.000
    H14     H    0.40334   0.15610   0.42741   1.000
    H15     H    0.70324   0.99121   0.55993   1.000
    C16     C    0.86440   0.68322   0.81830   1.000
    C17     C    0.83523   0.77995   0.78263   1.000
    C18     C    0.94178   0.58479   0.78559   1.000
    C19     C    0.14164   0.91741   0.99276   1.000
    C20     C    0.03152   0.91365   0.95862   1.000
    C21     C    0.10817   0.00000   0.03442   1.000
    C22     C    0.95910   0.67979   0.68312   1.000
    C23     C    0.88474   0.77835   0.71605   1.000
    C24     C    0.98531   0.58301   0.71858   1.000
    C25     C    0.44012   0.91700   0.50729   1.000
    C26     C    0.55468   0.91297   0.54103   1.000
    C27     C    0.38636   0.00000   0.46598   1.000
    C28     C    0.13554   0.31683   0.18172   1.000
    C29     C    0.16470   0.22010   0.21739   1.000
    C30     C    0.05816   0.41526   0.21442   1.000
    C31     C    0.85829   0.08266   0.00726   1.000
    C32     C    0.96842   0.08641   0.04139   1.000
    C33     C    0.89176   0.99532   0.96559   1.000
    C34     C    0.04083   0.32027   0.31690   1.000
    C35     C    0.11518   0.22171   0.28396   1.000
    C36     C    0.01463   0.41705   0.28143   1.000
    C37     C    0.55979   0.08306   0.49271   1.000
    C38     C    0.44523   0.08709   0.45898   1.000
    C39     C    0.61355   0.99506   0.53402   1.000
    C40     C    0.64252   0.21796   0.25022   1.000
    C41     C    0.35739   0.78212   0.74979   1.000
loop_
    _geom_bond_atom_site_label_1
    _geom_bond_atom_site_label_2
    _geom_bond_distance
    _geom_bond_site_symmetry_2
    _ccdc_geom_bond_type
    C31    C32       1.40204      .   S
    C31    C33       1.40302  1_544   S
    C21    C32       1.41944  1_455   S
    C21    H3        1.07221      .   S
    C21    C19       1.35445  1_544   S
    C32    H10       1.08896      .   S
    C28    C30       1.40339      .   S
    C28    C29       1.40365      .   S
    H9     C30       1.09016      .   S
    H8     C29       1.08965      .   S
    C30    C36       1.39352      .   S
    C29    C35       1.39363      .   S
    C36    H13       1.09006  1_455   S
    C36    C34       1.40330      .   S
    C35    H12       1.08962      .   S
    C35    C34       1.40373      .   S
    H14    C38       1.08897      .   S
    H7     C27       1.10332      .   S
    C38    C27       1.45212      .   S
    C38    C37       1.40181      .   S
    C27    C25       1.36022  1_545   S
    C37    C39       1.40294  1_545   S
    C25    C26       1.40182      .   S
    C39    C26       1.39054      .   S
    C39    H15       1.08828      .   S
    C26    H6        1.08897      .   S
    C22    C23       1.40373      .   S
    C22    C24       1.40328      .   S
    H4     C23       1.08962      .   S
    H5     C24       1.09012  1_455   S
    C23    C17       1.39363      .   S
    C24    C18       1.39351      .   S
    C17    H0        1.08965      .   S
    C17    C16       1.40365      .   S
    C18    H1        1.09015      .   S
    C18    C16       1.40340      .   S
    H2     C20       1.08898      .   S
    H11    C33       1.08833      .   S
    C20    C33       1.39107  1_455   S
    C20    C19       1.40204      .   S
