# CIF file generated by openbabel 2.4.90, see http://openbabel.sf.net
data_I
_chemical_name_common ''
_cell_length_a 9.73
_cell_length_b 13.257
_cell_length_c 20.935
_cell_angle_alpha 86.324
_cell_angle_beta 80.17
_cell_angle_gamma 68.899
_space_group_name_H-M_alt 'P 1'
_space_group_name_Hall 'P 1'
loop_
    _symmetry_equiv_pos_as_xyz
    x,y,z
loop_
    _atom_site_label
    _atom_site_type_symbol
    _atom_site_fract_x
    _atom_site_fract_y
    _atom_site_fract_z
    _atom_site_occupancy
    Lv0     Lv   0.64252   0.21796   0.25022   1.000
    Lv1     Lv   0.08821   0.31845   0.24931   1.000
    Lv2     Lv   0.35739   0.78212   0.74979   1.000
    Lv3     Lv   0.49996   0.99865   0.50000   1.000
    Lv4     Lv   0.91173   0.68161   0.75070   1.000
    Lv5     Lv   0.99997   0.99872   0.00001   1.000
