# CIF file generated by openbabel 2.4.90, see http://openbabel.sf.net
data_I
_chemical_name_common ''
_cell_length_a 9.73
_cell_length_b 13.257
_cell_length_c 20.935
_cell_angle_alpha 86.324
_cell_angle_beta 80.17
_cell_angle_gamma 68.899
_space_group_name_H-M_alt 'P 1'
_space_group_name_Hall 'P 1'
loop_
    _symmetry_equiv_pos_as_xyz
    x,y,z
loop_
    _atom_site_label
    _atom_site_type_symbol
    _atom_site_fract_x
    _atom_site_fract_y
    _atom_site_fract_z
    _atom_site_occupancy
    N0      N    0.64252   0.21796   0.25022   1.000
    N1      N    0.08821   0.31845   0.24931   1.000
    N2      N    0.35739   0.78212   0.74979   1.000
    N3      N    0.49996   0.99865   0.50000   1.000
    N4      N    0.91173   0.68161   0.75070   1.000
    N5      N    0.99997   0.99872   0.00001   1.000
    Zr6     Zr   0.42852   0.25221   0.04714   1.000
    O7      O    0.40189   0.34075   0.98798   1.000
    O8      O    0.39359   0.18138   0.98318   1.000
    O9      O    0.27657   0.28495   0.12231   1.000
    O10     O    0.65973   0.15732   0.02673   1.000
    Zr11    Zr   0.18387   0.74342   0.54762   1.000
    O12     O    0.31865   0.83968   0.52696   1.000
    O13     O    0.06629   0.71156   0.62325   1.000
    O14     O    0.24437   0.65627   0.48780   1.000
    O15     O    0.07665   0.81583   0.48346   1.000
    Zr16    Zr   0.57142   0.74784   0.95287   1.000
    O17     O    0.34021   0.84209   0.97329   1.000
    O18     O    0.59805   0.65930   0.01203   1.000
    O19     O    0.60635   0.81868   0.01683   1.000
    O20     O    0.72337   0.71510   0.87770   1.000
    Zr21    Zr   0.81605   0.25664   0.45239   1.000
    O22     O    0.93363   0.28850   0.37676   1.000
    O23     O    0.68126   0.15969   0.47305   1.000
    O24     O    0.92326   0.18424   0.51655   1.000
    O25     O    0.75553   0.34380   0.51221   1.000
loop_
    _geom_bond_atom_site_label_1
    _geom_bond_atom_site_label_2
    _geom_bond_distance
    _geom_bond_site_symmetry_2
    _ccdc_geom_bond_type
    Zr6    O7        1.63795  1_554   S
    N2     O7        7.37976      .   S
    Zr6    O8        1.82672  1_554   S
    N2     O8        7.56698  1_565   S
    Zr6    O9        1.91876      .   S
    N1     O9        2.92011      .   S
    Zr6    O10       2.12818      .   S
    N5     O10       3.19370  1_565   S
    Zr11   O12       2.11567      .   S
    N3     O12       3.17112      .   S
    Zr11   O13       1.90734      .   S
    N4     O13       2.90906  1_655   S
    Zr11   O14       1.64128      .   S
    N0     O14       7.37753      .   S
    Zr11   O15       1.84547      .   S
    N0     O15       7.58927  1_645   S
    Zr16   O17       2.12632      .   S
    N5     O17       3.18613  1_654   S
    Zr16   O18       1.63791  1_556   S
    N0     O18       7.37957      .   S
    Zr16   O19       1.82673  1_556   S
    N0     O19       7.56703  1_545   S
    Zr16   O20       1.91873      .   S
    N4     O20       2.92006      .   S
    Zr21   O22       1.90731      .   S
    N1     O22       2.90902  1_455   S
    Zr21   O23       2.12315      .   S
    N3     O23       3.19467  1_565   S
    Zr21   O24       1.84547      .   S
    N2     O24       7.58928  1_465   S
    Zr21   O25       1.64137      .   S
    N2     O25       7.37766      .   S
