# CIF file generated by openbabel 2.4.90, see http://openbabel.sf.net
data_I
_chemical_name_common ''
_cell_length_a 13.941
_cell_length_b 20.677
_cell_length_c 22.214
_cell_angle_alpha 89.995
_cell_angle_beta 90.511
_cell_angle_gamma 101.284
_space_group_name_H-M_alt 'P 1'
_space_group_name_Hall 'P 1'
loop_
    _symmetry_equiv_pos_as_xyz
    x,y,z
loop_
    _atom_site_label
    _atom_site_type_symbol
    _atom_site_fract_x
    _atom_site_fract_y
    _atom_site_fract_z
    _atom_site_occupancy
    N0      N    0.74525   0.58933   0.26200   1.000
    N1      N    0.79504   0.62316   0.76417   1.000
    N2      N    0.27198   0.35652   0.00349   1.000
    N3      N    0.20464   0.87617   0.26350   1.000
    N4      N    0.25427   0.91060   0.76119   1.000
    N5      N    0.72816   0.14329   0.50358   1.000
    N6      N    0.72806   0.64350   0.99648   1.000
    N7      N    0.20505   0.37687   0.23580   1.000
    N8      N    0.25478   0.41068   0.73798   1.000
    N9      N    0.27177   0.85674   0.49639   1.000
    N10     N    0.79539   0.12385   0.73648   1.000
    N11     N    0.74577   0.08942   0.23878   1.000
    Zr12    Zr   0.77099   0.35454   0.99994   1.000
    O13     O    0.94070   0.35831   0.00377   1.000
    O14     O    0.60186   0.35198   0.99846   1.000
    Zr15    Zr   0.22912   0.14544   0.49887   1.000
    O16     O    0.05950   0.14167   0.50282   1.000
    O17     O    0.39820   0.14788   0.49806   1.000
    Zr18    Zr   0.22904   0.64547   0.00004   1.000
    O19     O    0.39817   0.64804   0.00151   1.000
    O20     O    0.05934   0.64171   0.99621   1.000
    Zr21    Zr   0.77091   0.85458   0.50112   1.000
    O22     O    0.94051   0.85834   0.49715   1.000
    O23     O    0.60180   0.85214   0.50192   1.000
    O24     O    0.76466   0.92086   0.42628   1.000
    O25     O    0.77654   0.78921   0.57597   1.000
    O26     O    0.76191   0.77850   0.43406   1.000
    O27     O    0.77997   0.93202   0.56694   1.000
    O28     O    0.76229   0.27849   0.06684   1.000
    O29     O    0.77969   0.43179   0.93404   1.000
    O30     O    0.76474   0.42081   0.07473   1.000
    O31     O    0.77663   0.28936   0.92495   1.000
    O32     O    0.22340   0.71066   0.07503   1.000
    O33     O    0.23530   0.57920   0.92525   1.000
    O34     O    0.22036   0.56823   0.06594   1.000
    O35     O    0.23775   0.72153   0.93313   1.000
    O36     O    0.22006   0.06800   0.43304   1.000
    O37     O    0.23811   0.22151   0.56592   1.000
    O38     O    0.22350   0.21081   0.42401   1.000
    O39     O    0.23537   0.07916   0.57371   1.000
loop_
    _geom_bond_atom_site_label_1
    _geom_bond_atom_site_label_2
    _geom_bond_distance
    _geom_bond_site_symmetry_2
    _ccdc_geom_bond_type
    Zr12   O13       2.35271  1_556   S
    N2     O13       4.62575  1_455   S
    Zr12   O14       2.34795      .   S
    N2     O14       4.62057  1_554   S
    Zr15   O16       2.35314      .   S
    N5     O16       4.62594  1_655   S
    Zr15   O17       2.34805      .   S
    N5     O17       4.62006      .   S
    Zr18   O19       2.34798      .   S
    N6     O19       4.62063  1_556   S
    Zr18   O20       2.35268  1_554   S
    N6     O20       4.62569  1_655   S
    Zr21   O22       2.35282      .   S
    N9     O22       4.62495  1_455   S
    Zr21   O23       2.34838      .   S
    N9     O23       4.62106      .   S
    Zr21   O24       2.16647      .   S
    N11    O24       5.46814  1_545   S
    Zr21   O25       2.15326      .   S
    N1     O25       5.44592      .   S
    Zr21   O26       2.15157      .   S
    N0     O26       5.44002      .   S
    Zr21   O27       2.15303      .   S
    N10    O27       5.44223  1_545   S
    Zr12   O28       2.15063  1_556   S
    N11    O28       5.43924      .   S
    Zr12   O29       2.15310      .   S
    N1     O29       5.44259      .   S
    Zr12   O30       2.16702  1_556   S
    N0     O30       5.46924      .   S
    Zr12   O31       2.15443      .   S
    N10    O31       5.44800      .   S
    Zr18   O32       2.15445      .   S
    N3     O32       5.44800      .   S
    Zr18   O33       2.16701  1_554   S
    N8     O33       5.46928      .   S
    Zr18   O34       2.15303      .   S
    N7     O34       5.44240      .   S
    Zr18   O35       2.15072  1_554   S
    N4     O35       5.43924      .   S
    N3     O36       5.44225  1_565   S
    Zr15   O36       2.15303      .   S
    N8     O37       5.44001      .   S
    Zr15   O37       2.15148      .   S
    N7     O38       5.44616      .   S
    Zr15   O38       2.15332      .   S
    N4     O39       5.46801  1_565   S
    Zr15   O39       2.16643      .   S
