# CIF file generated by openbabel 2.4.90, see http://openbabel.sf.net
data_I
_chemical_name_common ''
_cell_length_a 13.941
_cell_length_b 20.677
_cell_length_c 22.214
_cell_angle_alpha 89.995
_cell_angle_beta 90.511
_cell_angle_gamma 101.284
_space_group_name_H-M_alt 'P 1'
_space_group_name_Hall 'P 1'
loop_
    _symmetry_equiv_pos_as_xyz
    x,y,z
loop_
    _atom_site_label
    _atom_site_type_symbol
    _atom_site_fract_x
    _atom_site_fract_y
    _atom_site_fract_z
    _atom_site_occupancy
    N0      N    0.74525   0.58933   0.26200   1.000
    N1      N    0.79504   0.62316   0.76417   1.000
    N2      N    0.27198   0.35652   0.00349   1.000
    N3      N    0.20464   0.87617   0.26350   1.000
    N4      N    0.25427   0.91060   0.76119   1.000
    N5      N    0.72816   0.14329   0.50358   1.000
    N6      N    0.72806   0.64350   0.99648   1.000
    N7      N    0.20505   0.37687   0.23580   1.000
    N8      N    0.25478   0.41068   0.73798   1.000
    N9      N    0.27177   0.85674   0.49639   1.000
    N10     N    0.79539   0.12385   0.73648   1.000
    N11     N    0.74577   0.08942   0.23878   1.000
    Zr12    Zr   0.77099   0.35454   0.99994   1.000
    O13     O    0.79965   0.29164   0.92785   1.000
    O14     O    0.78530   0.28198   0.06982   1.000
    O15     O    0.80302   0.43418   0.93580   1.000
    O16     O    0.94070   0.35831   0.00377   1.000
    O17     O    0.78799   0.42469   0.07651   1.000
    O18     O    0.73927   0.27499   0.06387   1.000
    O19     O    0.60186   0.35198   0.99846   1.000
    O20     O    0.75637   0.42940   0.93227   1.000
    O21     O    0.75361   0.28707   0.92206   1.000
    O22     O    0.74149   0.41694   0.07296   1.000
    Zr23    Zr   0.22912   0.14544   0.49887   1.000
    O24     O    0.20050   0.20855   0.42665   1.000
    O25     O    0.05950   0.14167   0.50282   1.000
    O26     O    0.19675   0.06563   0.43451   1.000
    O27     O    0.21515   0.21800   0.56869   1.000
    O28     O    0.21212   0.07529   0.57518   1.000
    O29     O    0.24651   0.21307   0.42137   1.000
    O30     O    0.39820   0.14788   0.49806   1.000
    O31     O    0.24337   0.07037   0.43158   1.000
    O32     O    0.25861   0.08303   0.57224   1.000
    O33     O    0.26107   0.22502   0.56315   1.000
    Zr34    Zr   0.22904   0.64547   0.00004   1.000
    O35     O    0.25855   0.58307   0.92703   1.000
    O36     O    0.39817   0.64804   0.00151   1.000
    O37     O    0.24368   0.57062   0.06771   1.000
    O38     O    0.24642   0.71294   0.07792   1.000
    O39     O    0.26076   0.72502   0.93610   1.000
    O40     O    0.05934   0.64171   0.99621   1.000
    O41     O    0.19703   0.56584   0.06417   1.000
    O42     O    0.20038   0.70838   0.07213   1.000
    O43     O    0.21473   0.71804   0.93016   1.000
    O44     O    0.21205   0.57533   0.92347   1.000
    Zr45    Zr   0.77091   0.85458   0.50112   1.000
    O46     O    0.78790   0.92472   0.42480   1.000
    O47     O    0.79955   0.79147   0.57333   1.000
    O48     O    0.94051   0.85834   0.49715   1.000
    O49     O    0.78487   0.78201   0.43130   1.000
    O50     O    0.80328   0.93439   0.56548   1.000
    O51     O    0.74142   0.91699   0.42775   1.000
    O52     O    0.60180   0.85214   0.50192   1.000
    O53     O    0.73895   0.77499   0.43682   1.000
    O54     O    0.75666   0.92964   0.56840   1.000
    O55     O    0.75354   0.78694   0.57861   1.000
loop_
    _geom_bond_atom_site_label_1
    _geom_bond_atom_site_label_2
    _geom_bond_distance
    _geom_bond_site_symmetry_2
    _ccdc_geom_bond_type
    Zr12   O13       2.15196      .   S
    N10    O13       5.47985      .   S
    Zr12   O14       2.19371  1_556   S
    N11    O14       5.42402      .   S
    Zr12   O15       2.15953      .   S
    N1     O15       5.47515      .   S
    Zr12   O16       2.35271  1_556   S
    N2     O16       4.62575  1_455   S
    Zr12   O17       2.21635  1_556   S
    N0     O17       5.45545      .   S
    Zr12   O18       2.15505  1_556   S
    N11    O18       5.47328      .   S
    Zr12   O19       2.34795      .   S
    N2     O19       4.62057  1_554   S
    Zr12   O20       2.19420      .   S
    N1     O20       5.42888      .   S
    Zr12   O21       2.20417      .   S
    N10    O21       5.43495      .   S
    Zr12   O22       2.16450  1_556   S
    N0     O22       5.50167      .   S
    Zr23   O24       2.15107      .   S
    N7     O24       5.47796      .   S
    Zr23   O25       2.35314      .   S
    N5     O25       4.62594  1_655   S
    Zr23   O26       2.16060      .   S
    N3     O26       5.47425  1_565   S
    Zr23   O27       2.19430      .   S
    N8     O27       5.42452      .   S
    Zr23   O28       2.21490      .   S
    N4     O28       5.45459  1_565   S
    Zr23   O29       2.20281      .   S
    N7     O29       5.43315      .   S
    Zr23   O30       2.34805      .   S
    N5     O30       4.62006      .   S
    Zr23   O31       2.19292      .   S
    N3     O31       5.42907  1_565   S
    Zr23   O32       2.16473      .   S
    N4     O32       5.50007  1_565   S
    Zr23   O33       2.15599      .   S
    N8     O33       5.47426      .   S
    Zr34   O35       2.16448  1_554   S
    N8     O35       5.50172      .   S
    Zr34   O36       2.34798      .   S
    N6     O36       4.62063  1_556   S
    Zr34   O37       2.19412      .   S
    N7     O37       5.42870      .   S
    Zr34   O38       2.20419      .   S
    N3     O38       5.43495      .   S
    Zr34   O39       2.15521  1_554   S
    N4     O39       5.47320      .   S
    Zr34   O40       2.35268  1_554   S
    N6     O40       4.62569  1_655   S
    Zr34   O41       2.15946      .   S
    N7     O41       5.47495      .   S
    Zr34   O42       2.15198      .   S
    N3     O42       5.47985      .   S
    Zr34   O43       2.19371  1_554   S
    N4     O43       5.42411      .   S
    Zr34   O44       2.21634  1_554   S
    N8     O44       5.45549      .   S
    Zr45   O46       2.21498      .   S
    N11    O46       5.45469  1_545   S
    Zr45   O47       2.15102      .   S
    N1     O47       5.47771      .   S
    Zr45   O48       2.35282      .   S
    N9     O48       4.62495  1_455   S
    Zr45   O49       2.19432      .   S
    N0     O49       5.42459      .   S
    Zr45   O50       2.16061      .   S
    N10    O50       5.47422  1_545   S
    Zr45   O51       2.16474      .   S
    N11    O51       5.50023  1_545   S
    Zr45   O52       2.34838      .   S
    N9     O52       4.62106      .   S
    Zr45   O53       2.15614      .   S
    N0     O53       5.47420      .   S
    Zr45   O54       2.19290      .   S
    N10    O54       5.42906  1_545   S
    Zr45   O55       2.20273      .   S
    N1     O55       5.43294      .   S
