# CIF file generated by openbabel 2.4.90, see http://openbabel.sf.net
data_I
_chemical_name_common ''
_cell_length_a 14.07
_cell_length_b 15.811
_cell_length_c 26.043
_cell_angle_alpha 90.002
_cell_angle_beta 89.998
_cell_angle_gamma 93.291
_space_group_name_H-M_alt 'P 1'
_space_group_name_Hall 'P 1'
loop_
    _symmetry_equiv_pos_as_xyz
    x,y,z
loop_
    _atom_site_label
    _atom_site_type_symbol
    _atom_site_fract_x
    _atom_site_fract_y
    _atom_site_fract_z
    _atom_site_occupancy
    Cd0     Cd   0.62083   0.99613   0.97006   1.000
    Cd1     Cd   0.12673   0.50451   0.53238   1.000
    Cd2     Cd   0.37916   0.50391   0.47005   1.000
    Cd3     Cd   0.12672   0.00450   0.96762   1.000
    Cd4     Cd   0.37915   0.00388   0.02993   1.000
    Cd5     Cd   0.87325   0.49550   0.46761   1.000
    Cd6     Cd   0.62082   0.49611   0.52994   1.000
    Cd7     Cd   0.87325   0.99553   0.03237   1.000
    Cl8     Cl   0.71605   0.07969   0.04225   1.000
    Cl9     Cl   0.76403   0.89385   0.96630   1.000
    Cl10    Cl   0.96560   0.09006   0.96460   1.000
    Cl11    Cl   0.51122   0.88750   0.02628   1.000
    Cl12    Cl   0.28392   0.42032   0.54225   1.000
    Cl13    Cl   0.23596   0.60619   0.46636   1.000
    Cl14    Cl   0.03437   0.40995   0.46459   1.000
    Cl15    Cl   0.48877   0.61253   0.52630   1.000
    Cl16    Cl   0.28391   0.92032   0.95774   1.000
    Cl17    Cl   0.23595   0.10617   0.03362   1.000
    Cl18    Cl   0.03438   0.90996   0.03539   1.000
    Cl19    Cl   0.48875   0.11252   0.97370   1.000
    Cl20    Cl   0.71606   0.57970   0.45774   1.000
    Cl21    Cl   0.76402   0.39383   0.53363   1.000
    Cl22    Cl   0.96561   0.59007   0.53540   1.000
    Cl23    Cl   0.51121   0.38749   0.47370   1.000
loop_
    _geom_bond_atom_site_label_1
    _geom_bond_atom_site_label_2
    _geom_bond_distance
    _geom_bond_site_symmetry_2
    _ccdc_geom_bond_type
    Cl11   Cd0       2.67737  1_554   S
    Cd4    Cl17      2.65669      .   S
    Cd4    Cl16      2.62148  1_544   S
    Cd4    Cl19      2.67749  1_554   S
    Cd7    Cl10      2.61045  1_564   S
    Cl18   Cd3       2.61044  1_564   S
    Cl8    Cd0       2.62143  1_544   S
    Cl20   Cd6       2.62194      .   S
    Cl14   Cd1       2.61114      .   S
    Cl13   Cd2       2.65671      .   S
    Cd5    Cl22      2.61114      .   S
    Cd2    Cl15      2.67768      .   S
    Cd2    Cl12      2.62196      .   S
    Cl23   Cd6       2.67755      .   S
    Cd6    Cl21      2.65668      .   S
    Cl9    Cd0       2.65673      .   S
