# CIF file generated by openbabel 2.4.90, see http://openbabel.sf.net
data_I
_chemical_name_common ''
_cell_length_a 14.07
_cell_length_b 15.811
_cell_length_c 26.043
_cell_angle_alpha 90.002
_cell_angle_beta 89.998
_cell_angle_gamma 93.291
_space_group_name_H-M_alt 'P 1'
_space_group_name_Hall 'P 1'
loop_
    _symmetry_equiv_pos_as_xyz
    x,y,z
loop_
    _atom_site_label
    _atom_site_type_symbol
    _atom_site_fract_x
    _atom_site_fract_y
    _atom_site_fract_z
    _atom_site_occupancy
    C0      C    0.87325   0.99553   0.03237   1.000
    C1      C    0.62083   0.99613   0.97006   1.000
    C2      C    0.12673   0.50451   0.53238   1.000
    C3      C    0.37916   0.50391   0.47005   1.000
    C4      C    0.12672   0.00450   0.96762   1.000
    C5      C    0.37915   0.00388   0.02993   1.000
    C6      C    0.87325   0.49550   0.46761   1.000
    C7      C    0.62082   0.49611   0.52994   1.000
    C8      C    0.09712   0.29158   0.24373   1.000
    C9      C    0.66394   0.74931   0.26012   1.000
    C10     C    0.90285   0.20843   0.74373   1.000
    C11     C    0.33605   0.75073   0.76013   1.000
    C12     C    0.90285   0.70845   0.75627   1.000
    C13     C    0.33604   0.25071   0.73987   1.000
    C14     C    0.09713   0.79159   0.25626   1.000
    C15     C    0.66389   0.24928   0.23987   1.000
    C16     C    0.38255   0.91425   0.19928   1.000
    C17     C    0.33519   0.84618   0.24881   1.000
    C18     C    0.42909   0.81234   0.20883   1.000
    C19     C    0.43523   0.03105   0.25951   1.000
    C20     C    0.50330   0.00341   0.31447   1.000
    C21     C    0.37925   0.97039   0.31009   1.000
    C22     C    0.67905   0.89390   0.07085   1.000
    C23     C    0.60821   0.49481   0.30075   1.000
    C24     C    0.24290   0.52537   0.36993   1.000
    C25     C    0.32931   0.30608   0.43690   1.000
    C26     C    0.86310   0.20130   0.20418   1.000
    C27     C    0.55570   0.74935   0.34987   1.000
    C28     C    0.23185   0.21482   0.37447   1.000
    C29     C    0.89569   0.79526   0.20357   1.000
    C30     C    0.50297   0.44191   0.37328   1.000
    C31     C    0.14627   0.13132   0.16560   1.000
    C32     C    0.07636   0.05690   0.08776   1.000
    C33     C    0.80446   0.12370   0.12510   1.000
    C34     C    0.14181   0.44476   0.30498   1.000
    C35     C    0.61466   0.78960   0.13600   1.000
    C36     C    0.95011   0.89598   0.13385   1.000
    C37     C    0.45393   0.68551   0.41936   1.000
    C38     C    0.39135   0.33445   0.12268   1.000
    C39     C    0.29803   0.26582   0.09617   1.000
    C40     C    0.31907   0.26696   0.16384   1.000
    C41     C    0.32889   0.46332   0.08993   1.000
    C42     C    0.20921   0.48729   0.10593   1.000
    C43     C    0.23062   0.40823   0.05877   1.000
    C44     C    0.86226   0.54330   0.22806   1.000
    C45     C    0.93197   0.50091   0.27797   1.000
    C46     C    0.86350   0.43135   0.23706   1.000
    C47     C    0.93570   0.59138   0.16070   1.000
    C48     C    0.00000   0.53494   0.12861   1.000
    C49     C    0.05708   0.60669   0.17935   1.000
    C50     C    0.78341   0.02883   0.39270   1.000
    C51     C    0.67742   0.97319   0.41514   1.000
    C52     C    0.67795   0.02472   0.35423   1.000
    C53     C    0.88454   0.92394   0.39244   1.000
    C54     C    0.87059   0.83875   0.34772   1.000
    C55     C    0.81355   0.83023   0.40866   1.000
    C56     C    0.61744   0.58574   0.69930   1.000
    C57     C    0.66478   0.65382   0.74883   1.000
    C58     C    0.57090   0.68765   0.70884   1.000
    C59     C    0.56470   0.46892   0.75953   1.000
    C60     C    0.49663   0.49659   0.81449   1.000
    C61     C    0.62069   0.52961   0.81011   1.000
    C62     C    0.32094   0.60611   0.57086   1.000
    C63     C    0.39181   0.00000   0.80075   1.000
    C64     C    0.75707   0.97467   0.86992   1.000
    C65     C    0.67068   0.19393   0.93698   1.000
    C66     C    0.13687   0.29870   0.70417   1.000
    C67     C    0.44430   0.75069   0.84987   1.000
    C68     C    0.76814   0.28519   0.87449   1.000
    C69     C    0.10430   0.70482   0.70357   1.000
    C70     C    0.49703   0.05810   0.87329   1.000
    C71     C    0.85370   0.36869   0.66566   1.000
    C72     C    0.92362   0.44311   0.58777   1.000
    C73     C    0.19551   0.37631   0.62516   1.000
    C74     C    0.85815   0.05525   0.80498   1.000
    C75     C    0.38534   0.71041   0.63610   1.000
    C76     C    0.04987   0.60410   0.63385   1.000
    C77     C    0.54607   0.81453   0.91937   1.000
    C78     C    0.60863   0.16557   0.62270   1.000
    C79     C    0.70194   0.23419   0.59618   1.000
    C80     C    0.68092   0.23306   0.66385   1.000
    C81     C    0.67109   0.03670   0.58993   1.000
    C82     C    0.79077   0.00000   0.60593   1.000
    C83     C    0.76936   0.09179   0.55878   1.000
    C84     C    0.13771   0.95674   0.72805   1.000
    C85     C    0.06800   0.99911   0.77797   1.000
    C86     C    0.13646   0.06866   0.73707   1.000
    C87     C    0.06429   0.90868   0.66068   1.000
    C88     C    0.97478   0.96509   0.62862   1.000
    C89     C    0.94292   0.89333   0.67936   1.000
    C90     C    0.21648   0.47120   0.89270   1.000
    C91     C    0.32250   0.52685   0.91513   1.000
    C92     C    0.32195   0.47529   0.85422   1.000
    C93     C    0.11540   0.57614   0.89244   1.000
    C94     C    0.12936   0.66130   0.84771   1.000
    C95     C    0.18639   0.66985   0.90865   1.000
    C96     C    0.61743   0.08574   0.80070   1.000
    C97     C    0.66478   0.15383   0.75117   1.000
    C98     C    0.57089   0.18766   0.79116   1.000
    C99     C    0.56471   0.96895   0.74047   1.000
    C100    C    0.49665   0.99661   0.68550   1.000
    C101    C    0.62070   0.02961   0.68989   1.000
    C102    C    0.32093   0.10612   0.92910   1.000
    C103    C    0.39178   0.50521   0.69925   1.000
    C104    C    0.75708   0.47466   0.63007   1.000
    C105    C    0.67067   0.69394   0.56304   1.000
    C106    C    0.13687   0.79872   0.79581   1.000
    C107    C    0.44428   0.25067   0.65012   1.000
    C108    C    0.76812   0.78520   0.62552   1.000
    C109    C    0.10429   0.20478   0.79643   1.000
    C110    C    0.49701   0.55811   0.62671   1.000
    C111    C    0.85370   0.86871   0.83434   1.000
    C112    C    0.92362   0.94313   0.91223   1.000
    C113    C    0.19551   0.87633   0.87483   1.000
    C114    C    0.85816   0.55527   0.69501   1.000
    C115    C    0.38532   0.21042   0.86391   1.000
    C116    C    0.04987   0.10405   0.86614   1.000
    C117    C    0.54605   0.31451   0.58063   1.000
    C118    C    0.60863   0.66557   0.87731   1.000
    C119    C    0.70194   0.73420   0.90382   1.000
    C120    C    0.68091   0.73306   0.83616   1.000
    C121    C    0.67110   0.53670   0.91006   1.000
    C122    C    0.79077   0.51274   0.89406   1.000
    C123    C    0.76935   0.59179   0.94122   1.000
    C124    C    0.13772   0.45673   0.77193   1.000
    C125    C    0.06800   0.49912   0.72200   1.000
    C126    C    0.13647   0.56868   0.76292   1.000
    C127    C    0.06428   0.40864   0.83928   1.000
    C128    C    0.97482   0.46509   0.87137   1.000
    C129    C    0.94289   0.39334   0.82064   1.000
    C130    C    0.21653   0.97121   0.60729   1.000
    C131    C    0.32254   0.02684   0.58486   1.000
    C132    C    0.32199   0.97531   0.64570   1.000
    C133    C    0.11542   0.07611   0.60755   1.000
    C134    C    0.12938   0.16128   0.65228   1.000
    C135    C    0.18641   0.16981   0.59134   1.000
    C136    C    0.38253   0.41432   0.30069   1.000
    C137    C    0.33519   0.34623   0.25117   1.000
    C138    C    0.42905   0.31240   0.29116   1.000
    C139    C    0.43528   0.53112   0.24045   1.000
    C140    C    0.50335   0.50344   0.18550   1.000
    C141    C    0.37928   0.47042   0.18988   1.000
    C142    C    0.67904   0.39390   0.42913   1.000
    C143    C    0.60813   0.99478   0.19924   1.000
    C144    C    0.24291   0.02535   0.13007   1.000
    C145    C    0.32927   0.80609   0.06301   1.000
    C146    C    0.86311   0.70133   0.29582   1.000
    C147    C    0.55561   0.24933   0.15014   1.000
    C148    C    0.23181   0.71483   0.12550   1.000
    C149    C    0.89567   0.29520   0.29640   1.000
    C150    C    0.50294   0.94192   0.12669   1.000
    C151    C    0.14628   0.63133   0.33433   1.000
    C152    C    0.07636   0.55691   0.41222   1.000
    C153    C    0.80447   0.62371   0.37483   1.000
    C154    C    0.14184   0.94478   0.19502   1.000
    C155    C    0.61464   0.28961   0.36300   1.000
    C156    C    0.95011   0.39592   0.36613   1.000
    C157    C    0.45388   0.18549   0.08060   1.000
    C158    C    0.39135   0.83445   0.37729   1.000
    C159    C    0.29804   0.76583   0.40381   1.000
    C160    C    0.31906   0.76696   0.33614   1.000
    C161    C    0.32890   0.96332   0.41006   1.000
    C162    C    0.20921   0.98726   0.39407   1.000
    C163    C    0.23064   0.90823   0.44122   1.000
    C164    C    0.86227   0.04329   0.27195   1.000
    C165    C    0.93198   0.00091   0.22203   1.000
    C166    C    0.86352   0.93137   0.26293   1.000
    C167    C    0.93569   0.09134   0.33933   1.000
    C168    C    0.00000   0.03494   0.37138   1.000
    C169    C    0.05704   0.10671   0.32063   1.000
    C170    C    0.78350   0.52880   0.10730   1.000
    C171    C    0.67748   0.47317   0.08486   1.000
    C172    C    0.67804   0.52472   0.14577   1.000
    C173    C    0.88456   0.42385   0.10755   1.000
    C174    C    0.87059   0.33869   0.15228   1.000
    C175    C    0.81357   0.33014   0.09134   1.000
    C176    C    0.40054   0.86683   0.22800   1.000
    C177    C    0.44602   0.98184   0.28850   1.000
    C178    C    0.72525   0.87037   0.10050   1.000
    C179    C    0.18156   0.32341   0.33475   1.000
    C180    C    0.57407   0.53855   0.32611   1.000
    C181    C    0.00850   0.16785   0.19133   1.000
    C182    C    0.23946   0.45633   0.36902   1.000
    C183    C    0.28723   0.33388   0.40681   1.000
    C184    C    0.91202   0.16872   0.17980   1.000
    C185    C    0.75154   0.78418   0.17370   1.000
    C186    C    0.54538   0.68085   0.35277   1.000
    C187    C    0.23367   0.28367   0.37245   1.000
    C188    C    0.84641   0.81426   0.17413   1.000
    C189    C    0.51519   0.50945   0.36580   1.000
    C190    C    0.07019   0.12948   0.15790   1.000
    C191    C    0.03124   0.08871   0.11475   1.000
    C192    C    0.18302   0.36851   0.17196   1.000
    C193    C    0.04671   0.42647   0.20460   1.000
    C194    C    0.58815   0.62586   0.31895   1.000
    C195    C    0.87957   0.12612   0.13580   1.000
    C196    C    0.18336   0.41166   0.33297   1.000
    C197    C    0.68914   0.81227   0.13680   1.000
    C198    C    0.87613   0.87165   0.13603   1.000
    C199    C    0.48789   0.64539   0.39160   1.000
    C200    C    0.31915   0.30614   0.12929   1.000
    C201    C    0.25550   0.43695   0.09530   1.000
    C202    C    0.90667   0.49130   0.23838   1.000
    C203    C    0.00232   0.55964   0.16560   1.000
    C204    C    0.69663   0.87151   0.31988   1.000
    C205    C    0.55420   0.86656   0.27330   1.000
    C206    C    0.72072   0.98917   0.38080   1.000
    C207    C    0.83474   0.87422   0.37730   1.000
    C208    C    0.59944   0.63316   0.72801   1.000
    C209    C    0.55393   0.51817   0.78851   1.000
    C210    C    0.27474   0.62966   0.60053   1.000
    C211    C    0.81842   0.17660   0.83476   1.000
    C212    C    0.42595   0.96149   0.82610   1.000
    C213    C    0.99148   0.33216   0.69133   1.000
    C214    C    0.76051   0.04369   0.86902   1.000
    C215    C    0.71276   0.16613   0.90683   1.000
    C216    C    0.08796   0.33128   0.67979   1.000
    C217    C    0.24845   0.71587   0.67373   1.000
    C218    C    0.45462   0.81919   0.85277   1.000
    C219    C    0.76631   0.21634   0.87246   1.000
    C220    C    0.15357   0.68581   0.67410   1.000
    C221    C    0.48482   0.99058   0.86586   1.000
    C222    C    0.92978   0.37054   0.65797   1.000
    C223    C    0.96873   0.41130   0.61476   1.000
    C224    C    0.81696   0.13150   0.67196   1.000
    C225    C    0.95326   0.07354   0.70464   1.000
    C226    C    0.41186   0.87418   0.81895   1.000
    C227    C    0.12041   0.37388   0.63580   1.000
    C228    C    0.81661   0.08835   0.83297   1.000
    C229    C    0.31086   0.68775   0.63681   1.000
    C230    C    0.12385   0.62841   0.63603   1.000
    C231    C    0.51211   0.85464   0.89161   1.000
    C232    C    0.68083   0.19388   0.62930   1.000
    C233    C    0.74448   0.06307   0.59531   1.000
    C234    C    0.09330   0.00000   0.73838   1.000
    C235    C    0.99765   0.94040   0.66565   1.000
    C236    C    0.30332   0.62854   0.81988   1.000
    C237    C    0.44577   0.63346   0.77338   1.000
    C238    C    0.27920   0.51087   0.88079   1.000
    C239    C    0.16520   0.62584   0.87730   1.000
    C240    C    0.59944   0.13317   0.77199   1.000
    C241    C    0.55394   0.01816   0.71149   1.000
    C242    C    0.27473   0.12965   0.89947   1.000
    C243    C    0.81842   0.67662   0.66524   1.000
    C244    C    0.42592   0.46147   0.67380   1.000
    C245    C    0.99148   0.83217   0.80860   1.000
    C246    C    0.76052   0.54370   0.63097   1.000
    C247    C    0.71275   0.66614   0.59318   1.000
    C248    C    0.08796   0.83130   0.82020   1.000
    C249    C    0.24844   0.21585   0.82627   1.000
    C250    C    0.45460   0.31917   0.64722   1.000
    C251    C    0.76630   0.71635   0.62755   1.000
    C252    C    0.15357   0.18577   0.82586   1.000
    C253    C    0.48480   0.49057   0.63414   1.000
    C254    C    0.92978   0.87055   0.84200   1.000
    C255    C    0.96873   0.91131   0.88524   1.000
    C256    C    0.81696   0.63151   0.82803   1.000
    C257    C    0.95326   0.57355   0.79534   1.000
    C258    C    0.41183   0.37416   0.68105   1.000
    C259    C    0.12041   0.87390   0.86419   1.000
    C260    C    0.81661   0.58836   0.66702   1.000
    C261    C    0.31084   0.18775   0.86319   1.000
    C262    C    0.12385   0.12838   0.86396   1.000
    C263    C    0.51209   0.35463   0.60839   1.000
    C264    C    0.68083   0.69388   0.87071   1.000
    C265    C    0.74448   0.56307   0.90469   1.000
    C266    C    0.09331   0.50873   0.76161   1.000
    C267    C    0.99765   0.44039   0.83433   1.000
    C268    C    0.30333   0.12852   0.68012   1.000
    C269    C    0.44577   0.13345   0.72660   1.000
    C270    C    0.27924   0.01086   0.61919   1.000
    C271    C    0.16522   0.12581   0.62200   1.000
    C272    C    0.40052   0.36689   0.27198   1.000
    C273    C    0.44605   0.48187   0.21148   1.000
    C274    C    0.72524   0.37036   0.39946   1.000
    C275    C    0.18156   0.82342   0.16523   1.000
    C276    C    0.57400   0.03852   0.17388   1.000
    C277    C    0.00850   0.66787   0.30866   1.000
    C278    C    0.23947   0.95634   0.13097   1.000
    C279    C    0.28721   0.83389   0.09316   1.000
    C280    C    0.91202   0.66874   0.32020   1.000
    C281    C    0.75152   0.28415   0.32626   1.000
    C282    C    0.54530   0.18082   0.14723   1.000
    C283    C    0.23365   0.78368   0.12753   1.000
    C284    C    0.84640   0.31422   0.32585   1.000
    C285    C    0.51514   0.00943   0.13412   1.000
    C286    C    0.07020   0.62949   0.34202   1.000
    C287    C    0.03125   0.58873   0.38523   1.000
    C288    C    0.18302   0.86852   0.32803   1.000
    C289    C    0.04672   0.92649   0.29535   1.000
    C290    C    0.58807   0.12583   0.18105   1.000
    C291    C    0.87957   0.62614   0.36419   1.000
    C292    C    0.18338   0.91168   0.16702   1.000
    C293    C    0.68912   0.31227   0.36318   1.000
    C294    C    0.87612   0.37161   0.36395   1.000
    C295    C    0.48784   0.14537   0.10830   1.000
    C296    C    0.31915   0.80614   0.37000   1.000
    C297    C    0.25550   0.93695   0.40469   1.000
    C298    C    0.90668   0.99129   0.26162   1.000
    C299    C    0.00233   0.05963   0.33435   1.000
    C300    C    0.69663   0.37146   0.18011   1.000
    C301    C    0.55420   0.36657   0.22661   1.000
    C302    C    0.72077   0.48913   0.11920   1.000
    C303    C    0.83476   0.37415   0.12269   1.000
    C304    C    0.93737   0.08528   0.10420   1.000
    C305    C    0.81711   0.89939   0.09984   1.000
    C306    C    0.47120   0.56151   0.39789   1.000
    C307    C    0.29123   0.41910   0.40503   1.000
    C308    C    0.25390   0.37369   0.13598   1.000
    C309    C    0.98584   0.49011   0.20210   1.000
    C310    C    0.75272   0.91379   0.35537   1.000
    C311    C    0.47134   0.90406   0.26332   1.000
    C312    C    0.02554   0.36586   0.24114   1.000
    C313    C    0.18533   0.30221   0.20571   1.000
    C314    C    0.12000   0.42976   0.17097   1.000
    C315    C    0.73208   0.80001   0.29967   1.000
    C316    C    0.56843   0.79358   0.24691   1.000
    C317    C    0.61274   0.90490   0.30869   1.000
    C318    C    0.06261   0.41473   0.60420   1.000
    C319    C    0.18288   0.60065   0.59985   1.000
    C320    C    0.52880   0.93852   0.89789   1.000
    C321    C    0.70874   0.08091   0.90504   1.000
    C322    C    0.74608   0.12633   0.63598   1.000
    C323    C    0.01413   0.00000   0.70210   1.000
    C324    C    0.24722   0.58627   0.85537   1.000
    C325    C    0.52862   0.59595   0.76333   1.000
    C326    C    0.97443   0.13415   0.74114   1.000
    C327    C    0.81464   0.19781   0.70572   1.000
    C328    C    0.87997   0.07025   0.67097   1.000
    C329    C    0.26790   0.70004   0.79968   1.000
    C330    C    0.43155   0.70644   0.74692   1.000
    C331    C    0.38721   0.59513   0.80869   1.000
    C332    C    0.06261   0.91475   0.89579   1.000
    C333    C    0.18287   0.10063   0.90015   1.000
    C334    C    0.52878   0.43851   0.60210   1.000
    C335    C    0.70874   0.58092   0.59496   1.000
    C336    C    0.74609   0.62634   0.86402   1.000
    C337    C    0.01413   0.50991   0.79780   1.000
    C338    C    0.24724   0.08624   0.64462   1.000
    C339    C    0.52862   0.09595   0.73667   1.000
    C340    C    0.97444   0.63416   0.75885   1.000
    C341    C    0.81465   0.69782   0.79420   1.000
    C342    C    0.87998   0.57027   0.82902   1.000
    C343    C    0.26790   0.20002   0.70032   1.000
    C344    C    0.43155   0.20643   0.75308   1.000
    C345    C    0.38722   0.09512   0.69130   1.000
    C346    C    0.93737   0.58529   0.39579   1.000
    C347    C    0.81710   0.39936   0.40014   1.000
    C348    C    0.47116   0.06149   0.10209   1.000
    C349    C    0.29123   0.91911   0.09495   1.000
    C350    C    0.25390   0.87369   0.36401   1.000
    C351    C    0.98585   0.99010   0.29790   1.000
    C352    C    0.75274   0.41373   0.14462   1.000
    C353    C    0.47135   0.40408   0.23667   1.000
    C354    C    0.02555   0.86588   0.25886   1.000
    C355    C    0.18534   0.80222   0.29428   1.000
    C356    C    0.12001   0.92977   0.32903   1.000
    C357    C    0.73203   0.29995   0.20030   1.000
    C358    C    0.56841   0.29360   0.25300   1.000
    C359    C    0.61275   0.40488   0.19130   1.000
    C360    C    0.71605   0.07969   0.04225   1.000
    C361    C    0.76403   0.89385   0.96630   1.000
    C362    C    0.96560   0.09006   0.96460   1.000
    C363    C    0.51122   0.88750   0.02628   1.000
    C364    C    0.28392   0.42032   0.54225   1.000
    C365    C    0.23596   0.60619   0.46636   1.000
    C366    C    0.03437   0.40995   0.46459   1.000
    C367    C    0.48877   0.61253   0.52630   1.000
    C368    C    0.28391   0.92032   0.95774   1.000
    C369    C    0.23595   0.10617   0.03362   1.000
    C370    C    0.03438   0.90996   0.03539   1.000
    C371    C    0.48875   0.11252   0.97370   1.000
    C372    C    0.71606   0.57970   0.45774   1.000
    C373    C    0.76402   0.39383   0.53363   1.000
    C374    C    0.96561   0.59007   0.53540   1.000
    C375    C    0.51121   0.38749   0.47370   1.000
    C376    C    0.04124   0.19949   0.23850   1.000
    C377    C    0.12875   0.27017   0.30210   1.000
    C378    C    0.64497   0.65089   0.27777   1.000
    C379    C    0.72063   0.72207   0.20928   1.000
    C380    C    0.95874   0.30052   0.73851   1.000
    C381    C    0.87123   0.22984   0.80211   1.000
    C382    C    0.35503   0.84915   0.77777   1.000
    C383    C    0.27936   0.77797   0.70929   1.000
    C384    C    0.95874   0.80054   0.76149   1.000
    C385    C    0.87123   0.72986   0.69789   1.000
    C386    C    0.35501   0.34913   0.72223   1.000
    C387    C    0.27935   0.27795   0.79071   1.000
    C388    C    0.04124   0.69951   0.26149   1.000
    C389    C    0.12875   0.77019   0.19789   1.000
    C390    C    0.64488   0.15086   0.22223   1.000
    C391    C    0.72061   0.22205   0.29070   1.000
    O392    O    0.56602   0.94182   0.99817   1.000
    O393    O    0.30755   0.05503   0.03177   1.000
    O394    O    0.33519   0.96150   0.06244   1.000
    O395    O    0.42515   0.03269   0.06601   1.000
    O396    O    0.33153   0.96210   0.99384   1.000
    O397    O    0.43395   0.05820   0.00181   1.000
    O398    O    0.84518   0.94746   0.06610   1.000
    O399    O    0.90531   0.04040   0.06828   1.000
    O400    O    0.91942   0.04279   0.99848   1.000
    O401    O    0.08055   0.95723   0.00150   1.000
    O402    O    0.66844   0.03791   0.00616   1.000
    O403    O    0.24306   0.42259   0.07703   1.000
    O404    O    0.30824   0.81999   0.07808   1.000
    O405    O    0.70215   0.88213   0.08568   1.000
    O406    O    0.47086   0.16543   0.09445   1.000
    O407    O    0.69913   0.48115   0.10203   1.000
    O408    O    0.05380   0.07281   0.10125   1.000
    O409    O    0.29219   0.45013   0.09262   1.000
    O410    O    0.82417   0.35214   0.10701   1.000
    O411    O    0.28922   0.87650   0.09406   1.000
    O412    O    0.26043   0.80879   0.11034   1.000
    O413    O    0.26535   0.93773   0.11296   1.000
    O414    O    0.23235   0.46212   0.10061   1.000
    O415    O    0.25470   0.40532   0.11564   1.000
    O416    O    0.30859   0.28598   0.11273   1.000
    O417    O    0.77118   0.88488   0.10017   1.000
    O418    O    0.84662   0.88552   0.11793   1.000
    O419    O    0.70719   0.84132   0.11865   1.000
    O420    O    0.47950   0.10343   0.10519   1.000
    O421    O    0.49315   0.03546   0.11810   1.000
    O422    O    0.98431   0.08700   0.10947   1.000
    O423    O    0.90847   0.10570   0.12000   1.000
    O424    O    0.75214   0.50897   0.11325   1.000
    O425    O    0.85966   0.39900   0.11512   1.000
    O426    O    0.51657   0.16310   0.12776   1.000
    O427    O    0.05072   0.10910   0.13633   1.000
    O428    O    0.73676   0.45143   0.13191   1.000
    O429    O    0.69940   0.50693   0.13248   1.000
    O430    O    0.35525   0.32030   0.12598   1.000
    O431    O    0.79375   0.39394   0.13365   1.000
    O432    O    0.85268   0.35642   0.13748   1.000
    O433    O    0.84201   0.12491   0.13045   1.000
    O434    O    0.23273   0.74926   0.12651   1.000
    O435    O    0.50904   0.97567   0.13040   1.000
    O436    O    0.20760   0.80355   0.14638   1.000
    O437    O    0.00116   0.54729   0.14710   1.000
    O438    O    0.28652   0.33991   0.13264   1.000
    O439    O    0.31911   0.28655   0.14657   1.000
    O440    O    0.24119   0.99085   0.13052   1.000
    O441    O    0.21142   0.93401   0.14899   1.000
    O442    O    0.91312   0.88382   0.13494   1.000
    O443    O    0.54457   0.02398   0.15400   1.000
    O444    O    0.89579   0.14742   0.15780   1.000
    O445    O    0.21846   0.37110   0.15397   1.000
    O446    O    0.65190   0.80093   0.13640   1.000
    O447    O    0.86127   0.84296   0.15508   1.000
    O448    O    0.72034   0.79822   0.15525   1.000
    O449    O    0.72469   0.39260   0.16236   1.000
    O450    O    0.55046   0.21507   0.14868   1.000
    O451    O    0.56669   0.15333   0.16414   1.000
    O452    O    0.10823   0.13040   0.16175   1.000
    O453    O    0.03934   0.14866   0.17461   1.000
    O454    O    0.96901   0.57551   0.16315   1.000
    O455    O    0.18247   0.86755   0.16612   1.000
    O456    O    0.15516   0.79681   0.18156   1.000
    O457    O    0.02970   0.58316   0.17247   1.000
    O458    O    0.99408   0.52487   0.18385   1.000
    O459    O    0.16261   0.92823   0.18102   1.000
    O460    O    0.15151   0.39914   0.17147   1.000
    O461    O    0.08335   0.42812   0.18778   1.000
    O462    O    0.18418   0.33536   0.18883   1.000
    O463    O    0.79897   0.79922   0.17391   1.000
    O464    O    0.73609   0.75313   0.19149   1.000
    O465    O    0.58103   0.08218   0.17746   1.000
    O466    O    0.59106   0.01665   0.18656   1.000
    O467    O    0.87105   0.80476   0.18885   1.000
    O468    O    0.96026   0.16829   0.18556   1.000
    O469    O    0.88756   0.18501   0.19199   1.000
    O470    O    0.65469   0.38817   0.18570   1.000
    O471    O    0.71433   0.33571   0.19020   1.000
    O472    O    0.61648   0.13834   0.20164   1.000
    O473    O    0.47470   0.49265   0.19849   1.000
    O474    O    0.41267   0.47614   0.20068   1.000
    O475    O    0.58347   0.38573   0.20896   1.000
    O476    O    0.02487   0.18367   0.21491   1.000
    O477    O    0.11294   0.78089   0.22707   1.000
    O478    O    0.39154   0.89054   0.21364   1.000
    O479    O    0.69796   0.27462   0.22009   1.000
    O480    O    0.01628   0.45829   0.20335   1.000
    O481    O    0.94625   0.49070   0.22024   1.000
    O482    O    0.03613   0.39617   0.22287   1.000
    O483    O    0.14123   0.29689   0.22472   1.000
    O484    O    0.41481   0.83959   0.21841   1.000
    O485    O    0.69229   0.73569   0.23470   1.000
    O486    O    0.45870   0.44297   0.22407   1.000
    O487    O    0.44066   0.50649   0.22596   1.000
    O488    O    0.91933   0.99610   0.24182   1.000
    O489    O    0.65439   0.20007   0.23105   1.000
    O490    O    0.51277   0.38533   0.23164   1.000
    O491    O    0.56130   0.33008   0.23980   1.000
    O492    O    0.36786   0.85650   0.23841   1.000
    O493    O    0.43594   0.88544   0.24566   1.000
    O494    O    0.88446   0.51730   0.23322   1.000
    O495    O    0.43593   0.38549   0.25432   1.000
    O496    O    0.88508   0.46132   0.23772   1.000
    O497    O    0.91932   0.49610   0.25817   1.000
    O498    O    0.06918   0.24554   0.24111   1.000
    O499    O    0.61615   0.27144   0.24643   1.000
    O500    O    0.69225   0.23567   0.26528   1.000
    O501    O    0.06133   0.32872   0.24243   1.000
    O502    O    0.11294   0.28088   0.27291   1.000
    O503    O    0.61619   0.77144   0.25351   1.000
    O504    O    0.56131   0.83007   0.26010   1.000
    O505    O    0.36785   0.35656   0.26158   1.000
    O506    O    0.06134   0.82874   0.25756   1.000
    O507    O    0.06918   0.74555   0.25887   1.000
    O508    O    0.14123   0.79690   0.27527   1.000
    O509    O    0.03613   0.89619   0.27710   1.000
    O510    O    0.44063   0.00645   0.27400   1.000
    O511    O    0.65446   0.70010   0.26894   1.000
    O512    O    0.69801   0.77466   0.27990   1.000
    O513    O    0.02487   0.68369   0.28508   1.000
    O514    O    0.88510   0.96133   0.26228   1.000
    O515    O    0.88447   0.01729   0.26678   1.000
    O516    O    0.94626   0.99070   0.27976   1.000
    O517    O    0.51277   0.88531   0.26831   1.000
    O518    O    0.45868   0.94295   0.27591   1.000
    O519    O    0.41479   0.33964   0.28157   1.000
    O520    O    0.39152   0.39060   0.28634   1.000
    O521    O    0.58347   0.88573   0.29100   1.000
    O522    O    0.61656   0.63837   0.29836   1.000
    O523    O    0.41264   0.97612   0.29929   1.000
    O524    O    0.47466   0.99263   0.30148   1.000
    O525    O    0.73606   0.25310   0.30848   1.000
    O526    O    0.18418   0.83537   0.31115   1.000
    O527    O    0.01628   0.95830   0.29662   1.000
    O528    O    0.08336   0.92813   0.31219   1.000
    O529    O    0.88757   0.68503   0.30801   1.000
    O530    O    0.87103   0.30471   0.31112   1.000
    O531    O    0.99409   0.02487   0.31612   1.000
    O532    O    0.71435   0.83576   0.30977   1.000
    O533    O    0.59114   0.51668   0.31343   1.000
    O534    O    0.15515   0.29679   0.31842   1.000
    O535    O    0.16259   0.42821   0.31897   1.000
    O536    O    0.96026   0.66830   0.31443   1.000
    O537    O    0.03935   0.64868   0.32534   1.000
    O538    O    0.65469   0.88820   0.31428   1.000
    O539    O    0.58111   0.58220   0.32253   1.000
    O540    O    0.56677   0.65335   0.33586   1.000
    O541    O    0.72468   0.89265   0.33763   1.000
    O542    O    0.89580   0.64744   0.34219   1.000
    O543    O    0.02969   0.08317   0.32749   1.000
    O544    O    0.79896   0.29918   0.32605   1.000
    O545    O    0.86126   0.34291   0.34490   1.000
    O546    O    0.54463   0.52400   0.34595   1.000
    O547    O    0.72032   0.29821   0.34472   1.000
    O548    O    0.15151   0.89915   0.32853   1.000
    O549    O    0.21846   0.87111   0.34602   1.000
    O550    O    0.18246   0.36754   0.33386   1.000
    O551    O    0.21141   0.43400   0.35099   1.000
    O552    O    0.10824   0.63041   0.33818   1.000
    O553    O    0.96901   0.07548   0.33684   1.000
    O554    O    0.00116   0.04728   0.35286   1.000
    O555    O    0.20762   0.30354   0.35360   1.000
    O556    O    0.31910   0.78655   0.35307   1.000
    O557    O    0.05072   0.60911   0.36362   1.000
    O558    O    0.85267   0.85649   0.36251   1.000
    O559    O    0.55054   0.71510   0.35132   1.000
    O560    O    0.51663   0.66312   0.37218   1.000
    O561    O    0.69933   0.00694   0.36751   1.000
    O562    O    0.79373   0.89401   0.36634   1.000
    O563    O    0.73672   0.95148   0.36808   1.000
    O564    O    0.65188   0.30094   0.36309   1.000
    O565    O    0.70718   0.34131   0.38132   1.000
    O566    O    0.91312   0.38377   0.36504   1.000
    O567    O    0.84661   0.38549   0.38204   1.000
    O568    O    0.28652   0.83992   0.36700   1.000
    O569    O    0.25470   0.90532   0.38435   1.000
    O570    O    0.84202   0.62493   0.36951   1.000
    O571    O    0.90847   0.60572   0.37999   1.000
    O572    O    0.50908   0.47568   0.36954   1.000
    O573    O    0.49319   0.53548   0.38184   1.000
    O574    O    0.24118   0.49085   0.36947   1.000
    O575    O    0.26535   0.43771   0.38702   1.000
    O576    O    0.35525   0.82030   0.37365   1.000
    O577    O    0.30860   0.78598   0.38690   1.000
    O578    O    0.23276   0.24925   0.37346   1.000
    O579    O    0.26045   0.30878   0.38963   1.000
    O580    O    0.85964   0.89908   0.38487   1.000
    O581    O    0.82415   0.85223   0.39298   1.000
    O582    O    0.75207   0.00900   0.38675   1.000
    O583    O    0.69907   0.98118   0.39797   1.000
    O584    O    0.98431   0.58701   0.39051   1.000
    O585    O    0.05381   0.57282   0.39872   1.000
    O586    O    0.47954   0.60345   0.39475   1.000
    O587    O    0.47091   0.66545   0.40548   1.000
    O588    O    0.23236   0.96211   0.39938   1.000
    O589    O    0.90531   0.54040   0.43170   1.000
    O590    O    0.42518   0.53271   0.43397   1.000
    O591    O    0.77117   0.38486   0.39980   1.000
    O592    O    0.70214   0.38213   0.41429   1.000
    O593    O    0.84517   0.44743   0.43388   1.000
    O594    O    0.29220   0.95014   0.40737   1.000
    O595    O    0.24307   0.92259   0.42295   1.000
    O596    O    0.28923   0.37649   0.40592   1.000
    O597    O    0.33520   0.46150   0.43754   1.000
    O598    O    0.30827   0.31998   0.42186   1.000
    O599    O    0.66844   0.53791   0.49384   1.000
    O600    O    0.08055   0.45723   0.49848   1.000
    O601    O    0.30756   0.55505   0.46820   1.000
    O602    O    0.91943   0.54279   0.50150   1.000
    O603    O    0.43396   0.55822   0.49817   1.000
    O604    O    0.33154   0.46211   0.50615   1.000
    O605    O    0.56602   0.44180   0.50182   1.000
    O606    O    0.69242   0.44497   0.53178   1.000
    O607    O    0.66478   0.53852   0.56245   1.000
    O608    O    0.57480   0.46731   0.56602   1.000
    O609    O    0.15481   0.55258   0.56611   1.000
    O610    O    0.09467   0.45962   0.56829   1.000
    O611    O    0.75692   0.07743   0.57704   1.000
    O612    O    0.69171   0.68004   0.57811   1.000
    O613    O    0.29784   0.61789   0.58569   1.000
    O614    O    0.52907   0.33457   0.59451   1.000
    O615    O    0.30089   0.01885   0.60203   1.000
    O616    O    0.94617   0.42721   0.60126   1.000
    O617    O    0.70779   0.04989   0.59262   1.000
    O618    O    0.17581   0.14781   0.60667   1.000
    O619    O    0.71075   0.62353   0.59407   1.000
    O620    O    0.73952   0.69125   0.61036   1.000
    O621    O    0.73463   0.56231   0.61296   1.000
    O622    O    0.76763   0.03153   0.60062   1.000
    O623    O    0.74528   0.09470   0.61564   1.000
    O624    O    0.69139   0.21404   0.61274   1.000
    O625    O    0.22881   0.61516   0.60019   1.000
    O626    O    0.15336   0.61453   0.61794   1.000
    O627    O    0.29280   0.65871   0.61867   1.000
    O628    O    0.52044   0.39657   0.60524   1.000
    O629    O    0.50679   0.46454   0.61812   1.000
    O630    O    0.01567   0.41301   0.60948   1.000
    O631    O    0.09151   0.39431   0.62000   1.000
    O632    O    0.24788   0.99103   0.61324   1.000
    O633    O    0.14032   0.10096   0.61477   1.000
    O634    O    0.48335   0.33690   0.62780   1.000
    O635    O    0.94926   0.39092   0.63637   1.000
    O636    O    0.26323   0.04855   0.63190   1.000
    O637    O    0.30061   0.99308   0.63245   1.000
    O638    O    0.20623   0.10603   0.63331   1.000
    O639    O    0.14730   0.14355   0.63714   1.000
    O640    O    0.64473   0.17972   0.62600   1.000
    O641    O    0.15796   0.37510   0.63048   1.000
    O642    O    0.76721   0.75078   0.62653   1.000
    O643    O    0.49091   0.52434   0.63043   1.000
    O644    O    0.79236   0.69649   0.64640   1.000
    O645    O    0.98622   0.95274   0.64714   1.000
    O646    O    0.71346   0.16010   0.63264   1.000
    O647    O    0.68087   0.21347   0.64657   1.000
    O648    O    0.75880   0.50918   0.63052   1.000
    O649    O    0.78857   0.56603   0.64899   1.000
    O650    O    0.08686   0.61625   0.63494   1.000
    O651    O    0.45536   0.47602   0.65397   1.000
    O652    O    0.10418   0.35258   0.65779   1.000
    O653    O    0.78152   0.12892   0.65397   1.000
    O654    O    0.13871   0.65711   0.65506   1.000
    O655    O    0.34810   0.69908   0.63645   1.000
    O656    O    0.27965   0.70181   0.65527   1.000
    O657    O    0.27528   0.10738   0.66237   1.000
    O658    O    0.44944   0.28492   0.64867   1.000
    O659    O    0.43322   0.34667   0.66414   1.000
    O660    O    0.89174   0.36961   0.66182   1.000
    O661    O    0.96063   0.35135   0.67465   1.000
    O662    O    0.03097   0.92454   0.66317   1.000
    O663    O    0.81752   0.63249   0.66613   1.000
    O664    O    0.84482   0.70324   0.68156   1.000
    O665    O    0.97029   0.91686   0.67250   1.000
    O666    O    0.00589   0.97020   0.68387   1.000
    O667    O    0.83739   0.57182   0.68101   1.000
    O668    O    0.84847   0.10088   0.67146   1.000
    O669    O    0.91662   0.07189   0.68780   1.000
    O670    O    0.81580   0.16466   0.68884   1.000
    O671    O    0.20101   0.70084   0.67392   1.000
    O672    O    0.26391   0.74692   0.69151   1.000
    O673    O    0.41888   0.41782   0.67742   1.000
    O674    O    0.40885   0.48334   0.68652   1.000
    O675    O    0.12893   0.69531   0.68883   1.000
    O676    O    0.03972   0.33172   0.68556   1.000
    O677    O    0.11241   0.31499   0.69198   1.000
    O678    O    0.34527   0.11182   0.68571   1.000
    O679    O    0.28561   0.16427   0.69022   1.000
    O680    O    0.38342   0.36165   0.70164   1.000
    O681    O    0.52530   0.00739   0.69849   1.000
    O682    O    0.58732   0.02389   0.70069   1.000
    O683    O    0.41649   0.11429   0.70895   1.000
    O684    O    0.97511   0.31634   0.71492   1.000
    O685    O    0.88704   0.71915   0.72708   1.000
    O686    O    0.60844   0.60945   0.71365   1.000
    O687    O    0.30197   0.22536   0.72009   1.000
    O688    O    0.98370   0.03677   0.70337   1.000
    O689    O    0.05372   0.00000   0.72024   1.000
    O690    O    0.96385   0.10384   0.72289   1.000
    O691    O    0.85875   0.20312   0.72472   1.000
    O692    O    0.58517   0.66041   0.71842   1.000
    O693    O    0.30771   0.76435   0.73471   1.000
    O694    O    0.54128   0.05706   0.72408   1.000
    O695    O    0.55932   0.99356   0.72598   1.000
    O696    O    0.08066   0.50392   0.74180   1.000
    O697    O    0.34553   0.29992   0.73105   1.000
    O698    O    0.48720   0.11470   0.73163   1.000
    O699    O    0.43866   0.16994   0.73984   1.000
    O700    O    0.63211   0.64349   0.73842   1.000
    O701    O    0.56403   0.61456   0.74567   1.000
    O702    O    0.11551   0.97837   0.73321   1.000
    O703    O    0.56403   0.11456   0.75433   1.000
    O704    O    0.11488   0.03433   0.73772   1.000
    O705    O    0.08065   0.99956   0.75817   1.000
    O706    O    0.93080   0.25448   0.74112   1.000
    O707    O    0.38379   0.22857   0.74647   1.000
    O708    O    0.30770   0.26433   0.76529   1.000
    O709    O    0.93864   0.17129   0.74243   1.000
    O710    O    0.88704   0.21914   0.77292   1.000
    O711    O    0.38380   0.72858   0.75352   1.000
    O712    O    0.43866   0.66995   0.76015   1.000
    O713    O    0.63211   0.14350   0.76158   1.000
    O714    O    0.93865   0.67131   0.75756   1.000
    O715    O    0.93080   0.75449   0.75888   1.000
    O716    O    0.85875   0.70314   0.77524   1.000
    O717    O    0.96385   0.60386   0.77709   1.000
    O718    O    0.55931   0.49355   0.77402   1.000
    O719    O    0.34554   0.79994   0.76895   1.000
    O720    O    0.30198   0.72539   0.77990   1.000
    O721    O    0.97511   0.81636   0.78504   1.000
    O722    O    0.11489   0.53871   0.76226   1.000
    O723    O    0.11551   0.48273   0.76677   1.000
    O724    O    0.05372   0.50932   0.77970   1.000
    O725    O    0.48719   0.61471   0.76835   1.000
    O726    O    0.54127   0.55706   0.77592   1.000
    O727    O    0.58516   0.16041   0.78157   1.000
    O728    O    0.60843   0.10945   0.78634   1.000
    O729    O    0.41649   0.61430   0.79103   1.000
    O730    O    0.38344   0.86167   0.79836   1.000
    O731    O    0.58731   0.52389   0.79931   1.000
    O732    O    0.52528   0.50738   0.80150   1.000
    O733    O    0.26390   0.24690   0.80849   1.000
    O734    O    0.81580   0.66467   0.81111   1.000
    O735    O    0.98370   0.54173   0.79657   1.000
    O736    O    0.91662   0.57191   0.81218   1.000
    O737    O    0.11242   0.81501   0.80800   1.000
    O738    O    0.12893   0.19528   0.81115   1.000
    O739    O    0.00589   0.47515   0.81606   1.000
    O740    O    0.28561   0.66429   0.80978   1.000
    O741    O    0.40888   0.98074   0.81342   1.000
    O742    O    0.84482   0.20322   0.81843   1.000
    O743    O    0.83738   0.07180   0.81898   1.000
    O744    O    0.03972   0.83174   0.81440   1.000
    O745    O    0.96063   0.85136   0.82530   1.000
    O746    O    0.34527   0.61183   0.81428   1.000
    O747    O    0.41890   0.91783   0.82252   1.000
    O748    O    0.43324   0.84669   0.83586   1.000
    O749    O    0.27527   0.60740   0.83762   1.000
    O750    O    0.10419   0.85260   0.84219   1.000
    O751    O    0.97027   0.41686   0.82748   1.000
    O752    O    0.20101   0.20081   0.82606   1.000
    O753    O    0.13871   0.15707   0.84491   1.000
    O754    O    0.45539   0.97604   0.84598   1.000
    O755    O    0.27964   0.20180   0.84473   1.000
    O756    O    0.84847   0.60089   0.82852   1.000
    O757    O    0.78152   0.62893   0.84603   1.000
    O758    O    0.81751   0.13248   0.83386   1.000
    O759    O    0.78856   0.06602   0.85099   1.000
    O760    O    0.03097   0.42452   0.83681   1.000
    O761    O    0.98624   0.45274   0.85285   1.000
    O762    O    0.89174   0.86963   0.83817   1.000
    O763    O    0.79237   0.19647   0.85361   1.000
    O764    O    0.68087   0.71347   0.85343   1.000
    O765    O    0.94926   0.89093   0.86362   1.000
    O766    O    0.14728   0.64357   0.86250   1.000
    O767    O    0.44946   0.78494   0.85132   1.000
    O768    O    0.48337   0.83692   0.87219   1.000
    O769    O    0.30057   0.49308   0.86750   1.000
    O770    O    0.20621   0.60606   0.86633   1.000
    O771    O    0.26321   0.54857   0.86808   1.000
    O772    O    0.34808   0.19908   0.86355   1.000
    O773    O    0.29279   0.15870   0.88133   1.000
    O774    O    0.08686   0.11622   0.86505   1.000
    O775    O    0.15336   0.11450   0.88205   1.000
    O776    O    0.71346   0.66011   0.86736   1.000
    O777    O    0.74529   0.59470   0.88436   1.000
    O778    O    0.15796   0.87511   0.86951   1.000
    O779    O    0.09151   0.89433   0.87999   1.000
    O780    O    0.49093   0.02434   0.86957   1.000
    O781    O    0.50681   0.96455   0.88187   1.000
    O782    O    0.75879   0.00918   0.86947   1.000
    O783    O    0.73463   0.06230   0.88703   1.000
    O784    O    0.64473   0.67973   0.87401   1.000
    O785    O    0.69139   0.71404   0.88726   1.000
    O786    O    0.76723   0.25077   0.87347   1.000
    O787    O    0.73953   0.19124   0.88965   1.000
    O788    O    0.14030   0.60099   0.88487   1.000
    O789    O    0.17579   0.64785   0.89297   1.000
    O790    O    0.24784   0.49104   0.88674   1.000
    O791    O    0.30085   0.51886   0.89796   1.000
    O792    O    0.01567   0.91303   0.89051   1.000
    O793    O    0.94617   0.92722   0.89873   1.000
    O794    O    0.52046   0.89658   0.89475   1.000
    O795    O    0.52909   0.83459   0.90549   1.000
    O796    O    0.76763   0.53790   0.89937   1.000
    O797    O    0.09467   0.95962   0.93171   1.000
    O798    O    0.57482   0.96733   0.93397   1.000
    O799    O    0.22880   0.11514   0.89981   1.000
    O800    O    0.29783   0.11788   0.91429   1.000
    O801    O    0.15480   0.05257   0.93388   1.000
    O802    O    0.70779   0.54989   0.90737   1.000
    O803    O    0.75692   0.57743   0.92295   1.000
    O804    O    0.71075   0.12352   0.90593   1.000
    O805    O    0.66479   0.03852   0.93755   1.000
    O806    O    0.69172   0.18003   0.92190   1.000
    O807    O    0.69243   0.94499   0.96818   1.000
loop_
    _geom_bond_atom_site_label_1
    _geom_bond_atom_site_label_2
    _geom_bond_distance
    _geom_bond_site_symmetry_2
    _ccdc_geom_bond_type
    C363   O392      1.33868  1_554   S
    C1     O392      1.33868      .   S
    C5     O393      1.32834      .   S
    C369   O393      1.32834      .   S
    C5     O394      1.22513  1_545   S
    C349   O394      1.22513      .   S
    C5     O395      1.21471      .   S
    C348   O395      1.21471      .   S
    C5     O396      1.31074  1_544   S
    C368   O396      1.31074      .   S
    C5     O397      1.33875      .   S
    C371   O397      1.33875  1_556   S
    C0     O398      1.21286      .   S
    C305   O398      1.21286      .   S
    C0     O399      1.24297  1_565   S
    C304   O399      1.24297      .   S
    C0     O400      1.30523  1_564   S
    C362   O400      1.30523      .   S
    C370   O401      1.30522      .   S
    C4     O401      1.30522  1_546   S
    C360   O402      1.31071      .   S
    C1     O402      1.31071  1_566   S
    C43    O403      0.55125      .   S
    C201   O403      0.55125      .   S
    C145   O404      0.54538      .   S
    C279   O404      0.54538      .   S
    C22    O405      0.54429      .   S
    C178   O405      0.54429      .   S
    C157   O406      0.54448      .   S
    C295   O406      0.54448      .   S
    C171   O407      0.55158      .   S
    C302   O407      0.55158      .   S
    C32    O408      0.54466      .   S
    C191   O408      0.54466      .   S
    C41    O409      0.55005      .   S
    C201   O409      0.55005      .   S
    C175   O410      0.55132      .   S
    C303   O410      0.55132      .   S
    C279   O411      0.67306      .   S
    C349   O411      0.67306      .   S
    C279   O412      0.69473      .   S
    C283   O412      0.69473      .   S
    C349   O413      0.67192      .   S
    C278   O413      0.67192      .   S
    C201   O414      0.54627      .   S
    C42    O414      0.54627      .   S
    C201   O415      0.72814      .   S
    C308   O415      0.72814      .   S
    C39    O416      0.55154      .   S
    C200   O416      0.55154      .   S
    C305   O417      0.67324      .   S
    C178   O417      0.67324      .   S
    C305   O418      0.67309      .   S
    C198   O418      0.67309      .   S
    C178   O419      0.69681      .   S
    C197   O419      0.69681      .   S
    C348   O420      0.67162      .   S
    C295   O420      0.67162      .   S
    C348   O421      0.67358      .   S
    C285   O421      0.67358      .   S
    C304   O422      0.67359      .   S
    C191   O422      0.67359  1_455   S
    C304   O423      0.67378      .   S
    C195   O423      0.67378      .   S
    C170   O424      0.54882      .   S
    C302   O424      0.54882      .   S
    C173   O425      0.54790      .   S
    C303   O425      0.54790      .   S
    C295   O426      0.69712      .   S
    C282   O426      0.69712      .   S
    C191   O427      0.69605      .   S
    C190   O427      0.69605      .   S
    C302   O428      0.72862      .   S
    C352   O428      0.72862      .   S
    C302   O429      0.54676      .   S
    C172   O429      0.54676      .   S
    C38    O430      0.54996      .   S
    C200   O430      0.54996      .   S
    C303   O431      0.73015      .   S
    C352   O431      0.73015      .   S
    C303   O432      0.54655      .   S
    C174   O432      0.54655      .   S
    C33    O433      0.54569      .   S
    C195   O433      0.54569      .   S
    C148   O434      0.54433      .   S
    C283   O434      0.54433      .   S
    C150   O435      0.54435      .   S
    C285   O435      0.54435  1_545   S
    C283   O436      0.69799      .   S
    C275   O436      0.69799      .   S
    C48    O437      0.51964      .   S
    C203   O437      0.51964      .   S
    C200   O438      0.72913      .   S
    C308   O438      0.72913      .   S
    C200   O439      0.54617      .   S
    C40    O439      0.54617      .   S
    C144   O440      0.54484  1_545   S
    C278   O440      0.54484      .   S
    C278   O441      0.69623      .   S
    C292   O441      0.69623      .   S
    C36    O442      0.54512      .   S
    C198   O442      0.54512      .   S
    C285   O443      0.69387      .   S
    C276   O443      0.69387      .   S
    C195   O444      0.69639      .   S
    C184   O444      0.69639      .   S
    C308   O445      0.68371      .   S
    C192   O445      0.68371      .   S
    C35    O446      0.54402      .   S
    C197   O446      0.54402      .   S
    C198   O447      0.69631      .   S
    C188   O447      0.69631      .   S
    C197   O448      0.69580      .   S
    C185   O448      0.69580      .   S
    C352   O449      0.68257      .   S
    C300   O449      0.68257      .   S
    C282   O450      0.54357      .   S
    C147   O450      0.54357      .   S
    C282   O451      0.69893      .   S
    C290   O451      0.69893      .   S
    C190   O452      0.54392      .   S
    C31    O452      0.54392      .   S
    C190   O453      0.69642      .   S
    C181   O453      0.69642      .   S
    C47    O454      0.54793      .   S
    C203   O454      0.54793  1_455   S
    C275   O455      0.69747      .   S
    C292   O455      0.69747      .   S
    C275   O456      0.69141      .   S
    C389   O456      0.69141      .   S
    C203   O457      0.54987      .   S
    C49    O457      0.54987      .   S
    C203   O458      0.73084  1_455   S
    C309   O458      0.73084      .   S
    C292   O459      0.54363      .   S
    C154   O459      0.54363      .   S
    C314   O460      0.67514      .   S
    C192   O460      0.67514      .   S
    C314   O461      0.67580      .   S
    C193   O461      0.67580      .   S
    C192   O462      0.68496      .   S
    C313   O462      0.68496      .   S
    C185   O463      0.69556      .   S
    C188   O463      0.69556      .   S
    C185   O464      0.70050      .   S
    C379   O464      0.70050      .   S
    C276   O465      0.69791      .   S
    C290   O465      0.69791      .   S
    C276   O466      0.54390      .   S
    C143   O466      0.54390  1_565   S
    C188   O467      0.54377      .   S
    C29    O467      0.54377      .   S
    C184   O468      0.69558      .   S
    C181   O468      0.69558  1_455   S
    C184   O469      0.54377      .   S
    C26    O469      0.54377      .   S
    C300   O470      0.67609      .   S
    C359   O470      0.67609      .   S
    C300   O471      0.68336      .   S
    C357   O471      0.68336      .   S
    C290   O472      0.69089      .   S
    C390   O472      0.69089      .   S
    C140   O473      0.54601      .   S
    C273   O473      0.54601      .   S
    C141   O474      0.55048      .   S
    C273   O474      0.55048      .   S
    C359   O475      0.67714      .   S
    C301   O475      0.67714      .   S
    C181   O476      0.69733      .   S
    C376   O476      0.69733      .   S
    C389   O477      0.81249      .   S
    C14    O477      0.81249      .   S
    C16    O478      0.54941      .   S
    C176   O478      0.54941      .   S
    C357   O479      0.79603      .   S
    C15    O479      0.79603      .   S
    C309   O480      0.67990  1_655   S
    C193   O480      0.67990      .   S
    C309   O481      0.73083      .   S
    C202   O481      0.73083      .   S
    C193   O482      0.68556      .   S
    C312   O482      0.68556      .   S
    C313   O483      0.79452      .   S
    C8     O483      0.79452      .   S
    C18    O484      0.54604      .   S
    C176   O484      0.54604      .   S
    C379   O485      0.80840      .   S
    C9     O485      0.80840      .   S
    C273   O486      0.72799      .   S
    C353   O486      0.72799      .   S
    C273   O487      0.55048      .   S
    C139   O487      0.55048      .   S
    C165   O488      0.54926  1_545   S
    C298   O488      0.54926      .   S
    C390   O489      0.81494      .   S
    C15    O489      0.81494      .   S
    C301   O490      0.68167      .   S
    C353   O490      0.68167      .   S
    C301   O491      0.68374      .   S
    C358   O491      0.68374      .   S
    C176   O492      0.55026      .   S
    C17    O492      0.55026      .   S
    C176   O493      0.72761      .   S
    C311   O493      0.72761      .   S
    C44    O494      0.54717      .   S
    C202   O494      0.54717      .   S
    C353   O495      0.72754      .   S
    C272   O495      0.72754      .   S
    C46    O496      0.54827      .   S
    C202   O496      0.54827      .   S
    C202   O497      0.54925      .   S
    C45    O497      0.54925      .   S
    C376   O498      0.81014      .   S
    C8     O498      0.81014      .   S
    C15    O499      0.79384      .   S
    C358   O499      0.79384      .   S
    C15    O500      0.80838      .   S
    C391   O500      0.80838      .   S
    C312   O501      0.79597      .   S
    C8     O501      0.79597      .   S
    C8     O502      0.81252      .   S
    C377   O502      0.81252      .   S
    C316   O503      0.79409      .   S
    C9     O503      0.79409      .   S
    C316   O504      0.68380      .   S
    C205   O504      0.68380      .   S
    C137   O505      0.55023      .   S
    C272   O505      0.55023      .   S
    C14    O506      0.79596      .   S
    C354   O506      0.79596      .   S
    C14    O507      0.81014      .   S
    C388   O507      0.81014      .   S
    C14    O508      0.79454      .   S
    C355   O508      0.79454      .   S
    C354   O509      0.68509      .   S
    C289   O509      0.68509      .   S
    C19    O510      0.55045      .   S
    C177   O510      0.55045  1_565   S
    C9     O511      0.81493      .   S
    C378   O511      0.81493      .   S
    C9     O512      0.79599      .   S
    C315   O512      0.79599      .   S
    C388   O513      0.69733      .   S
    C277   O513      0.69733      .   S
    C298   O514      0.54805      .   S
    C166   O514      0.54805      .   S
    C298   O515      0.54719  1_565   S
    C164   O515      0.54719      .   S
    C298   O516      0.73082      .   S
    C351   O516      0.73082      .   S
    C311   O517      0.68145      .   S
    C205   O517      0.68145      .   S
    C311   O518      0.72798      .   S
    C177   O518      0.72798      .   S
    C272   O519      0.54603      .   S
    C138   O519      0.54603      .   S
    C272   O520      0.54940      .   S
    C136   O520      0.54940      .   S
    C205   O521      0.67788      .   S
    C317   O521      0.67788      .   S
    C378   O522      0.69094      .   S
    C194   O522      0.69094      .   S
    C177   O523      0.55042      .   S
    C21    O523      0.55042      .   S
    C177   O524      0.54583      .   S
    C20    O524      0.54583  1_545   S
    C391   O525      0.70032      .   S
    C281   O525      0.70032      .   S
    C355   O526      0.68493      .   S
    C288   O526      0.68493      .   S
    C289   O527      0.67979      .   S
    C351   O527      0.67979  1_655   S
    C289   O528      0.67624      .   S
    C356   O528      0.67624      .   S
    C146   O529      0.54381      .   S
    C280   O529      0.54381      .   S
    C149   O530      0.54387      .   S
    C284   O530      0.54387      .   S
    C351   O531      0.73042  1_565   S
    C299   O531      0.73042  1_455   S
    C315   O532      0.68342      .   S
    C204   O532      0.68342      .   S
    C23    O533      0.54391      .   S
    C180   O533      0.54391      .   S
    C377   O534      0.69135      .   S
    C179   O534      0.69135      .   S
    C34    O535      0.54363      .   S
    C196   O535      0.54363      .   S
    C277   O536      0.69559  1_455   S
    C280   O536      0.69559      .   S
    C277   O537      0.69590      .   S
    C286   O537      0.69590      .   S
    C317   O538      0.67610      .   S
    C204   O538      0.67610      .   S
    C194   O539      0.69790      .   S
    C180   O539      0.69790      .   S
    C194   O540      0.69891      .   S
    C186   O540      0.69891      .   S
    C204   O541      0.68252      .   S
    C310   O541      0.68252      .   S
    C280   O542      0.69630      .   S
    C291   O542      0.69630      .   S
    C169   O543      0.54967      .   S
    C299   O543      0.54967      .   S
    C284   O544      0.69557      .   S
    C281   O544      0.69557      .   S
    C284   O545      0.69631      .   S
    C294   O545      0.69631      .   S
    C180   O546      0.69329      .   S
    C189   O546      0.69329      .   S
    C281   O547      0.69600      .   S
    C293   O547      0.69600      .   S
    C288   O548      0.67514      .   S
    C356   O548      0.67514      .   S
    C288   O549      0.68372      .   S
    C350   O549      0.68372      .   S
    C196   O550      0.69747      .   S
    C179   O550      0.69747      .   S
    C196   O551      0.69626      .   S
    C182   O551      0.69626      .   S
    C151   O552      0.54389      .   S
    C286   O552      0.54389      .   S
    C299   O553      0.54801  1_455   S
    C167   O553      0.54801      .   S
    C299   O554      0.52011      .   S
    C168   O554      0.52011      .   S
    C179   O555      0.69810      .   S
    C187   O555      0.69810      .   S
    C160   O556      0.53879      .   S
    C296   O556      0.53879      .   S
    C286   O557      0.69668      .   S
    C287   O557      0.69668      .   S
    C54    O558      0.54651      .   S
    C207   O558      0.54651      .   S
    C27    O559      0.54356      .   S
    C186   O559      0.54356      .   S
    C186   O560      0.69626      .   S
    C199   O560      0.69626      .   S
    C52    O561      0.54671      .   S
    C206   O561      0.54671  1_565   S
    C310   O562      0.73012      .   S
    C207   O562      0.73012      .   S
    C310   O563      0.72863      .   S
    C206   O563      0.72863      .   S
    C155   O564      0.54392      .   S
    C293   O564      0.54392      .   S
    C293   O565      0.69663      .   S
    C274   O565      0.69663      .   S
    C294   O566      0.54512      .   S
    C156   O566      0.54512      .   S
    C294   O567      0.67309      .   S
    C347   O567      0.67309      .   S
    C350   O568      0.72811      .   S
    C296   O568      0.72811      .   S
    C350   O569      0.72812      .   S
    C297   O569      0.72812      .   S
    C291   O570      0.54547      .   S
    C153   O570      0.54547      .   S
    C291   O571      0.67383      .   S
    C346   O571      0.67383      .   S
    C189   O572      0.54472      .   S
    C30    O572      0.54472      .   S
    C189   O573      0.67406      .   S
    C306   O573      0.67406      .   S
    C182   O574      0.54507      .   S
    C24    O574      0.54507      .   S
    C182   O575      0.67193      .   S
    C307   O575      0.67193      .   S
    C296   O576      0.55143      .   S
    C158   O576      0.55143      .   S
    C296   O577      0.55858      .   S
    C159   O577      0.55858      .   S
    C187   O578      0.54434      .   S
    C28    O578      0.54434      .   S
    C187   O579      0.69466      .   S
    C183   O579      0.69466      .   S
    C207   O580      0.54792      .   S
    C53    O580      0.54792      .   S
    C207   O581      0.55137      .   S
    C55    O581      0.55137      .   S
    C206   O582      0.54864  1_565   S
    C50    O582      0.54864      .   S
    C206   O583      0.55158      .   S
    C51    O583      0.55158      .   S
    C287   O584      0.67360  1_455   S
    C346   O584      0.67360      .   S
    C287   O585      0.54469      .   S
    C152   O585      0.54469      .   S
    C199   O586      0.67175      .   S
    C306   O586      0.67175      .   S
    C199   O587      0.54500      .   S
    C37    O587      0.54500      .   S
    C162   O588      0.54611      .   S
    C297   O588      0.54611      .   S
    C346   O589      1.24307      .   S
    C6     O589      1.24307      .   S
    C306   O590      1.21479      .   S
    C3     O590      1.21479      .   S
    C274   O591      0.67325      .   S
    C347   O591      0.67325      .   S
    C274   O592      0.54448      .   S
    C142   O592      0.54448      .   S
    C347   O593      1.21285      .   S
    C6     O593      1.21285      .   S
    C297   O594      0.55005      .   S
    C161   O594      0.55005      .   S
    C297   O595      0.55125      .   S
    C163   O595      0.55125      .   S
    C307   O596      0.67306      .   S
    C183   O596      0.67306      .   S
    C307   O597      1.22527      .   S
    C3     O597      1.22527      .   S
    C183   O598      0.54491      .   S
    C25    O598      0.54491      .   S
    C372   O599      1.31097      .   S
    C7     O599      1.31097      .   S
    C366   O600      1.30557      .   S
    C2     O600      1.30557      .   S
    C365   O601      1.32835      .   S
    C3     O601      1.32835      .   S
    C6     O602      1.30557      .   S
    C374   O602      1.30557      .   S
    C3     O603      1.33884      .   S
    C367   O603      1.33884      .   S
    C3     O604      1.31098      .   S
    C364   O604      1.31098      .   S
    C375   O605      1.33877      .   S
    C7     O605      1.33877      .   S
    C7     O606      1.32834      .   S
    C373   O606      1.32834      .   S
    C7     O607      1.22528      .   S
    C335   O607      1.22528      .   S
    C7     O608      1.21479      .   S
    C334   O608      1.21479      .   S
    C2     O609      1.21285      .   S
    C319   O609      1.21285      .   S
    C2     O610      1.24305      .   S
    C318   O610      1.24305      .   S
    C83    O611      0.55126      .   S
    C233   O611      0.55126      .   S
    C105   O612      0.54537      .   S
    C247   O612      0.54537      .   S
    C62    O613      0.54450      .   S
    C210   O613      0.54450      .   S
    C117   O614      0.54499      .   S
    C263   O614      0.54499      .   S
    C131   O615      0.55151      .   S
    C270   O615      0.55151      .   S
    C72    O616      0.54469      .   S
    C223   O616      0.54469      .   S
    C81    O617      0.55006      .   S
    C233   O617      0.55006      .   S
    C135   O618      0.54466      .   S
    C271   O618      0.54466      .   S
    C247   O619      0.67306      .   S
    C335   O619      0.67306      .   S
    C247   O620      0.69475      .   S
    C251   O620      0.69475      .   S
    C335   O621      0.67192      .   S
    C246   O621      0.67192      .   S
    C233   O622      0.62643      .   S
    C82    O622      0.62643      .   S
    C233   O623      0.72803      .   S
    C322   O623      0.72803      .   S
    C79    O624      0.55153      .   S
    C232   O624      0.55153      .   S
    C319   O625      0.67325      .   S
    C210   O625      0.67325      .   S
    C319   O626      0.67303      .   S
    C230   O626      0.67303      .   S
    C210   O627      0.69662      .   S
    C229   O627      0.69662      .   S
    C334   O628      0.67176      .   S
    C263   O628      0.67176      .   S
    C334   O629      0.67365      .   S
    C253   O629      0.67365      .   S
    C318   O630      0.67360      .   S
    C223   O630      0.67360  1_655   S
    C318   O631      0.67383      .   S
    C227   O631      0.67383      .   S
    C130   O632      0.54861      .   S
    C270   O632      0.54861  1_545   S
    C133   O633      0.54475      .   S
    C271   O633      0.54475      .   S
    C263   O634      0.69625      .   S
    C250   O634      0.69625      .   S
    C223   O635      0.69668      .   S
    C222   O635      0.69668      .   S
    C270   O636      0.72862      .   S
    C338   O636      0.72862      .   S
    C270   O637      0.54622  1_545   S
    C132   O637      0.54622      .   S
    C271   O638      0.73369      .   S
    C338   O638      0.73369      .   S
    C271   O639      0.55296      .   S
    C134   O639      0.55296      .   S
    C78    O640      0.54994      .   S
    C232   O640      0.54994      .   S
    C73    O641      0.54547      .   S
    C227   O641      0.54547      .   S
    C108   O642      0.54434      .   S
    C251   O642      0.54434      .   S
    C110   O643      0.54460      .   S
    C253   O643      0.54460      .   S
    C251   O644      0.69800      .   S
    C243   O644      0.69800      .   S
    C88    O645      0.54785      .   S
    C235   O645      0.54785      .   S
    C232   O646      0.72912      .   S
    C322   O646      0.72912      .   S
    C232   O647      0.54617      .   S
    C80    O647      0.54617      .   S
    C104   O648      0.54506      .   S
    C246   O648      0.54506      .   S
    C246   O649      0.69626      .   S
    C260   O649      0.69626      .   S
    C76    O650      0.54512      .   S
    C230   O650      0.54512      .   S
    C253   O651      0.69298      .   S
    C244   O651      0.69298      .   S
    C227   O652      0.69629      .   S
    C216   O652      0.69629      .   S
    C322   O653      0.68372      .   S
    C224   O653      0.68372      .   S
    C230   O654      0.69603      .   S
    C220   O654      0.69603      .   S
    C75    O655      0.54400      .   S
    C229   O655      0.54400      .   S
    C229   O656      0.69601      .   S
    C217   O656      0.69601      .   S
    C338   O657      0.68262      .   S
    C268   O657      0.68262      .   S
    C250   O658      0.54356      .   S
    C107   O658      0.54356      .   S
    C250   O659      0.69898      .   S
    C258   O659      0.69898      .   S
    C222   O660      0.54388      .   S
    C71    O660      0.54388      .   S
    C222   O661      0.69590      .   S
    C213   O661      0.69590      .   S
    C87    O662      0.54800      .   S
    C235   O662      0.54800  1_655   S
    C243   O663      0.69747      .   S
    C260   O663      0.69747      .   S
    C243   O664      0.69135      .   S
    C385   O664      0.69135      .   S
    C235   O665      0.54966      .   S
    C89    O665      0.54966      .   S
    C235   O666      0.67413  1_655   S
    C323   O666      0.67413  1_545   S
    C260   O667      0.54362      .   S
    C114   O667      0.54362      .   S
    C328   O668      0.67513      .   S
    C224   O668      0.67513      .   S
    C328   O669      0.67616      .   S
    C225   O669      0.67616      .   S
    C224   O670      0.68501      .   S
    C327   O670      0.68501      .   S
    C217   O671      0.69556      .   S
    C220   O671      0.69556      .   S
    C217   O672      0.70032      .   S
    C383   O672      0.70032      .   S
    C244   O673      0.69806      .   S
    C258   O673      0.69806      .   S
    C244   O674      0.54462      .   S
    C103   O674      0.54462      .   S
    C220   O675      0.54407      .   S
    C69    O675      0.54407      .   S
    C216   O676      0.69559      .   S
    C213   O676      0.69559  1_655   S
    C216   O677      0.54381      .   S
    C66    O677      0.54381      .   S
    C268   O678      0.67608      .   S
    C345   O678      0.67608      .   S
    C268   O679      0.68336      .   S
    C343   O679      0.68336      .   S
    C258   O680      0.69092      .   S
    C386   O680      0.69092      .   S
    C100   O681      0.54597  1_565   S
    C241   O681      0.54597      .   S
    C101   O682      0.55049      .   S
    C241   O682      0.55049      .   S
    C345   O683      0.67709      .   S
    C269   O683      0.67709      .   S
    C213   O684      0.69743      .   S
    C380   O684      0.69743      .   S
    C385   O685      0.81264      .   S
    C12    O685      0.81264      .   S
    C56    O686      0.54937      .   S
    C208   O686      0.54937      .   S
    C343   O687      0.79599      .   S
    C13    O687      0.79599      .   S
    C323   O688      0.74231  1_455   S
    C225   O688      0.74231      .   S
    C323   O689      0.73035      .   S
    C234   O689      0.73035      .   S
    C225   O690      0.68519      .   S
    C326   O690      0.68519      .   S
    C327   O691      0.79446      .   S
    C10    O691      0.79446      .   S
    C58    O692      0.54600      .   S
    C208   O692      0.54600      .   S
    C383   O693      0.80842      .   S
    C11    O693      0.80842      .   S
    C241   O694      0.72796      .   S
    C339   O694      0.72796      .   S
    C241   O695      0.55038  1_545   S
    C99    O695      0.55038      .   S
    C125   O696      0.54950      .   S
    C266   O696      0.54950      .   S
    C386   O697      0.81490      .   S
    C13    O697      0.81490      .   S
    C269   O698      0.68169      .   S
    C339   O698      0.68169      .   S
    C269   O699      0.68438      .   S
    C344   O699      0.68438      .   S
    C208   O700      0.55030      .   S
    C57    O700      0.55030      .   S
    C208   O701      0.72763      .   S
    C325   O701      0.72763      .   S
    C84    O702      0.49491      .   S
    C234   O702      0.49491  1_545   S
    C339   O703      0.72763      .   S
    C240   O703      0.72763      .   S
    C86    O704      0.60674      .   S
    C234   O704      0.60674      .   S
    C234   O705      0.54531  1_545   S
    C85    O705      0.54531      .   S
    C380   O706      0.81013      .   S
    C10    O706      0.81013      .   S
    C13    O707      0.79410      .   S
    C344   O707      0.79410      .   S
    C13    O708      0.80838      .   S
    C387   O708      0.80838      .   S
    C326   O709      0.79596      .   S
    C10    O709      0.79596      .   S
    C10    O710      0.81262      .   S
    C381   O710      0.81262      .   S
    C330   O711      0.79409      .   S
    C11    O711      0.79409      .   S
    C330   O712      0.68424      .   S
    C237   O712      0.68424      .   S
    C97    O713      0.55031      .   S
    C240   O713      0.55031      .   S
    C12    O714      0.79596      .   S
    C340   O714      0.79596      .   S
    C12    O715      0.81013      .   S
    C384   O715      0.81013      .   S
    C12    O716      0.79377      .   S
    C341   O716      0.79377      .   S
    C340   O717      0.68512      .   S
    C257   O717      0.68512      .   S
    C59    O718      0.55054      .   S
    C209   O718      0.55054      .   S
    C11    O719      0.81489      .   S
    C382   O719      0.81489      .   S
    C11    O720      0.79597      .   S
    C329   O720      0.79597      .   S
    C384   O721      0.69663      .   S
    C245   O721      0.69663      .   S
    C266   O722      0.54827      .   S
    C126   O722      0.54827      .   S
    C266   O723      0.54718      .   S
    C124   O723      0.54718      .   S
    C266   O724      0.73006      .   S
    C337   O724      0.73006      .   S
    C325   O725      0.68164      .   S
    C237   O725      0.68164      .   S
    C325   O726      0.72796      .   S
    C209   O726      0.72796      .   S
    C240   O727      0.54601      .   S
    C98    O727      0.54601      .   S
    C240   O728      0.54937      .   S
    C96    O728      0.54937      .   S
    C237   O729      0.67719      .   S
    C331   O729      0.67719      .   S
    C382   O730      0.69094      .   S
    C226   O730      0.69094      .   S
    C209   O731      0.55049      .   S
    C61    O731      0.55049      .   S
    C209   O732      0.54601      .   S
    C60    O732      0.54601      .   S
    C387   O733      0.70034      .   S
    C249   O733      0.70034      .   S
    C341   O734      0.68565      .   S
    C256   O734      0.68565      .   S
    C257   O735      0.67988      .   S
    C337   O735      0.67988  1_455   S
    C257   O736      0.67621      .   S
    C342   O736      0.67621      .   S
    C106   O737      0.54385      .   S
    C248   O737      0.54385      .   S
    C109   O738      0.54369      .   S
    C252   O738      0.54369      .   S
    C337   O739      0.73109      .   S
    C267   O739      0.73109  1_655   S
    C329   O740      0.68339      .   S
    C236   O740      0.68339      .   S
    C63    O741      0.51742  1_545   S
    C212   O741      0.51742      .   S
    C381   O742      0.69135      .   S
    C211   O742      0.69135      .   S
    C74    O743      0.54357      .   S
    C228   O743      0.54357      .   S
    C245   O744      0.69577  1_655   S
    C248   O744      0.69577      .   S
    C245   O745      0.69619      .   S
    C254   O745      0.69619      .   S
    C331   O746      0.67611      .   S
    C236   O746      0.67611      .   S
    C226   O747      0.69789      .   S
    C212   O747      0.69789      .   S
    C226   O748      0.69892      .   S
    C218   O748      0.69892      .   S
    C236   O749      0.68255      .   S
    C324   O749      0.68255      .   S
    C248   O750      0.69628      .   S
    C259   O750      0.69628      .   S
    C129   O751      0.54962      .   S
    C267   O751      0.54962      .   S
    C252   O752      0.69556      .   S
    C249   O752      0.69556      .   S
    C252   O753      0.69633      .   S
    C262   O753      0.69633      .   S
    C212   O754      0.69395      .   S
    C221   O754      0.69395      .   S
    C249   O755      0.69600      .   S
    C261   O755      0.69600      .   S
    C256   O756      0.67513      .   S
    C342   O756      0.67513      .   S
    C256   O757      0.68379      .   S
    C336   O757      0.68379      .   S
    C228   O758      0.69747      .   S
    C211   O758      0.69747      .   S
    C228   O759      0.69625      .   S
    C214   O759      0.69625      .   S
    C267   O760      0.54801  1_655   S
    C127   O760      0.54801      .   S
    C267   O761      0.54786      .   S
    C128   O761      0.54786      .   S
    C111   O762      0.54382      .   S
    C254   O762      0.54382      .   S
    C211   O763      0.69803      .   S
    C219   O763      0.69803      .   S
    C120   O764      0.54618      .   S
    C264   O764      0.54618      .   S
    C254   O765      0.69699      .   S
    C255   O765      0.69699      .   S
    C94    O766      0.54657      .   S
    C239   O766      0.54657      .   S
    C67    O767      0.54357      .   S
    C218   O767      0.54357      .   S
    C218   O768      0.69635      .   S
    C231   O768      0.69635      .   S
    C92    O769      0.54678      .   S
    C238   O769      0.54678      .   S
    C324   O770      0.73013      .   S
    C239   O770      0.73013      .   S
    C324   O771      0.72859      .   S
    C238   O771      0.72859      .   S
    C261   O772      0.54400      .   S
    C115   O772      0.54400      .   S
    C261   O773      0.69664      .   S
    C242   O773      0.69664      .   S
    C262   O774      0.54512      .   S
    C116   O774      0.54512      .   S
    C262   O775      0.67310      .   S
    C333   O775      0.67310      .   S
    C336   O776      0.72913      .   S
    C264   O776      0.72913      .   S
    C336   O777      0.72807      .   S
    C265   O777      0.72807      .   S
    C259   O778      0.54548      .   S
    C113   O778      0.54548      .   S
    C259   O779      0.67379      .   S
    C332   O779      0.67379      .   S
    C221   O780      0.54437  1_565   S
    C70    O780      0.54437      .   S
    C221   O781      0.67358      .   S
    C320   O781      0.67358      .   S
    C214   O782      0.54484      .   S
    C64    O782      0.54484  1_565   S
    C214   O783      0.67195      .   S
    C321   O783      0.67195      .   S
    C264   O784      0.54994      .   S
    C118   O784      0.54994      .   S
    C264   O785      0.55143      .   S
    C119   O785      0.55143      .   S
    C219   O786      0.54433      .   S
    C68    O786      0.54433      .   S
    C219   O787      0.69474      .   S
    C215   O787      0.69474      .   S
    C239   O788      0.54790      .   S
    C93    O788      0.54790      .   S
    C239   O789      0.55131      .   S
    C95    O789      0.55131      .   S
    C238   O790      0.54884      .   S
    C90    O790      0.54884      .   S
    C238   O791      0.55161      .   S
    C91    O791      0.55161      .   S
    C255   O792      0.67358  1_655   S
    C332   O792      0.67358      .   S
    C255   O793      0.54467      .   S
    C112   O793      0.54467      .   S
    C231   O794      0.67174      .   S
    C320   O794      0.67174      .   S
    C231   O795      0.54500      .   S
    C77    O795      0.54500      .   S
    C122   O796      0.54627      .   S
    C265   O796      0.54627      .   S
    C332   O797      1.24296      .   S
    C4     O797      1.24296  1_545   S
    C320   O798      1.21485      .   S
    C1     O798      1.21485      .   S
    C242   O799      0.67325      .   S
    C333   O799      0.67325      .   S
    C242   O800      0.54412      .   S
    C102   O800      0.54412      .   S
    C333   O801      1.21286      .   S
    C4     O801      1.21286      .   S
    C265   O802      0.55004      .   S
    C121   O802      0.55004      .   S
    C265   O803      0.55124      .   S
    C123   O803      0.55124      .   S
    C321   O804      0.67306      .   S
    C215   O804      0.67306      .   S
    C321   O805      1.22514      .   S
    C1     O805      1.22514  1_565   S
    C215   O806      0.54542      .   S
    C65    O806      0.54542      .   S
    C361   O807      1.32837      .   S
    C1     O807      1.32837      .   S
