# CIF file generated by openbabel 2.4.90, see http://openbabel.sf.net
data_I
_chemical_name_common ''
_cell_length_a 14.07
_cell_length_b 15.811
_cell_length_c 26.043
_cell_angle_alpha 90.002
_cell_angle_beta 89.998
_cell_angle_gamma 93.291
_space_group_name_H-M_alt 'P 1'
_space_group_name_Hall 'P 1'
loop_
    _symmetry_equiv_pos_as_xyz
    x,y,z
loop_
    _atom_site_label
    _atom_site_type_symbol
    _atom_site_fract_x
    _atom_site_fract_y
    _atom_site_fract_z
    _atom_site_occupancy
    N0      N    0.88921   0.15705   0.71236   1.000
    N1      N    0.36650   0.68587   0.78050   1.000
    N2      N    0.11022   0.34228   0.21235   1.000
    N3      N    0.63347   0.81404   0.28049   1.000
    N4      N    0.88921   0.65774   0.78763   1.000
    N5      N    0.63346   0.31403   0.21947   1.000
    N6      N    0.36650   0.18598   0.71948   1.000
    N7      N    0.11022   0.84229   0.28762   1.000
    Zr8     Zr   0.34694   0.03572   0.99875   1.000
    O9      O    0.28482   0.96881   0.08689   1.000
    O10     O    0.43812   0.10454   0.07074   1.000
    Zr11    Zr   0.91942   0.04279   0.99848   1.000
    O12     O    0.96359   0.11707   0.06940   1.000
    O13     O    0.82937   0.96177   0.08589   1.000
    Zr14    Zr   0.65303   0.46428   0.49875   1.000
    O15     O    0.56184   0.39546   0.57075   1.000
    O16     O    0.71501   0.53121   0.58690   1.000
    Zr17    Zr   0.34695   0.53574   0.50124   1.000
    O18     O    0.28483   0.46881   0.41309   1.000
    O19     O    0.43814   0.60456   0.42923   1.000
    Zr20    Zr   0.65303   0.96429   0.00122   1.000
    O21     O    0.71501   0.03104   0.91309   1.000
    O22     O    0.56185   0.89545   0.92923   1.000
    Zr23    Zr   0.91943   0.54279   0.50150   1.000
    O24     O    0.96360   0.61707   0.43058   1.000
    O25     O    0.82937   0.46176   0.41409   1.000
    Zr26    Zr   0.08055   0.95723   0.00150   1.000
    O27     O    0.03624   0.88296   0.93059   1.000
    O28     O    0.17060   0.03825   0.91409   1.000
    Zr29    Zr   0.08055   0.45723   0.49848   1.000
    O30     O    0.03625   0.38279   0.56941   1.000
    O31     O    0.17060   0.53823   0.58590   1.000
loop_
    _geom_bond_atom_site_label_1
    _geom_bond_atom_site_label_2
    _geom_bond_distance
    _geom_bond_site_symmetry_2
    _ccdc_geom_bond_type
    Zr8    O9        2.65445  1_546   S
    N7     O9        6.06626      .   S
    Zr8    O10       2.48700  1_556   S
    N5     O10       5.69922      .   S
    Zr11   O12       2.25664  1_556   S
    N2     O12       5.47282  1_455   S
    Zr11   O13       2.87081  1_546   S
    N3     O13       6.16421      .   S
    Zr14   O15       2.48710      .   S
    N6     O15       5.69929      .   S
    Zr14   O16       2.65397      .   S
    N4     O16       6.06424      .   S
    Zr17   O18       2.65464      .   S
    N2     O18       6.06669      .   S
    Zr17   O19       2.48723      .   S
    N3     O19       5.69960      .   S
    Zr20   O21       2.65270  1_564   S
    N0     O21       6.06157      .   S
    Zr20   O22       2.48716  1_554   S
    N1     O22       5.70012      .   S
    Zr23   O24       2.25685      .   S
    N7     O24       5.47326  1_455   S
    Zr23   O25       2.87110      .   S
    N5     O25       6.16477      .   S
    Zr26   O27       2.25717  1_554   S
    N4     O27       5.47492  1_655   S
    Zr26   O28       2.87093  1_564   S
    N6     O28       6.16457      .   S
    Zr29   O30       2.25861      .   S
    N0     O30       5.48013  1_655   S
    Zr29   O31       2.87076      .   S
    N1     O31       6.16383      .   S
