# CIF file generated by openbabel 2.4.90, see http://openbabel.sf.net
data_I
_chemical_name_common ''
_cell_length_a 14.357
_cell_length_b 15.243
_cell_length_c 16.405
_cell_angle_alpha 89.997
_cell_angle_beta 90.004
_cell_angle_gamma 97.449
_space_group_name_H-M_alt 'P 1'
_space_group_name_Hall 'P 1'
loop_
    _symmetry_equiv_pos_as_xyz
    x,y,z
loop_
    _atom_site_label
    _atom_site_type_symbol
    _atom_site_fract_x
    _atom_site_fract_y
    _atom_site_fract_z
    _atom_site_occupancy
    Lv0     Lv   0.12256   0.29724   0.78241   1.000
    Lv1     Lv   0.37727   0.70264   0.21749   1.000
    Lv2     Lv   0.62702   0.20230   0.28251   1.000
    Lv3     Lv   0.62275   0.29737   0.78247   1.000
    Lv4     Lv   0.12695   0.20256   0.28241   1.000
    Lv5     Lv   0.37299   0.79769   0.71747   1.000
    Lv6     Lv   0.87745   0.70275   0.21755   1.000
    Lv7     Lv   0.87306   0.79744   0.71758   1.000
