# CIF file generated by openbabel 2.4.90, see http://openbabel.sf.net
data_I
_chemical_name_common ''
_cell_length_a 14.357
_cell_length_b 15.243
_cell_length_c 16.405
_cell_angle_alpha 89.997
_cell_angle_beta 90.004
_cell_angle_gamma 97.449
_space_group_name_H-M_alt 'P 1'
_space_group_name_Hall 'P 1'
loop_
    _symmetry_equiv_pos_as_xyz
    x,y,z
loop_
    _atom_site_label
    _atom_site_type_symbol
    _atom_site_fract_x
    _atom_site_fract_y
    _atom_site_fract_z
    _atom_site_occupancy
    H0      H    0.20477   0.66569   0.20730   1.000
    H1      H    0.70501   0.66550   0.20733   1.000
    H2      H    0.05051   0.73624   0.22519   1.000
    H3      H    0.55037   0.73582   0.22500   1.000
    H4      H    0.04552   0.83466   0.70727   1.000
    H5      H    0.54539   0.83528   0.70696   1.000
    H6      H    0.19996   0.76392   0.72535   1.000
    H7      H    0.70000   0.76393   0.72530   1.000
    H8      H    0.29500   0.33450   0.79260   1.000
    H9      H    0.79524   0.33433   0.79270   1.000
    H10     H    0.44965   0.26418   0.77480   1.000
    H11     H    0.94950   0.26375   0.77480   1.000
    H12     H    0.45462   0.16471   0.29303   1.000
    H13     H    0.95449   0.16532   0.29272   1.000
    H14     H    0.30001   0.23608   0.27468   1.000
    H15     H    0.80004   0.23608   0.27464   1.000
    C16     C    0.42673   0.66487   0.28006   1.000
    C17     C    0.92700   0.66514   0.28016   1.000
    C18     C    0.32809   0.64391   0.27374   1.000
    C19     C    0.82836   0.64401   0.27385   1.000
    C20     C    0.28053   0.68309   0.21206   1.000
    C21     C    0.78074   0.68301   0.21210   1.000
    C22     C    0.32763   0.74403   0.15789   1.000
    C23     C    0.82772   0.74397   0.15780   1.000
    C24     C    0.42593   0.76188   0.16149   1.000
    C25     C    0.92601   0.76198   0.16148   1.000
    C26     C    0.47411   0.72185   0.22240   1.000
    C27     C    0.97427   0.72215   0.22247   1.000
    C28     C    0.32347   0.83539   0.78000   1.000
    C29     C    0.82355   0.83522   0.78008   1.000
    C30     C    0.42207   0.85671   0.77355   1.000
    C31     C    0.92217   0.85641   0.77367   1.000
    C32     C    0.46968   0.81762   0.71187   1.000
    C33     C    0.96978   0.81719   0.71207   1.000
    C34     C    0.42271   0.75635   0.65788   1.000
    C35     C    0.92277   0.75604   0.65802   1.000
    C36     C    0.32443   0.73812   0.66160   1.000
    C37     C    0.82447   0.73801   0.66167   1.000
    C38     C    0.27620   0.77813   0.72253   1.000
    C39     C    0.77625   0.77804   0.72254   1.000
    C40     C    0.07301   0.33485   0.71982   1.000
    C41     C    0.57328   0.33513   0.71990   1.000
    C42     C    0.17165   0.35598   0.72614   1.000
    C43     C    0.67192   0.35610   0.72625   1.000
    C44     C    0.21927   0.31699   0.78780   1.000
    C45     C    0.71949   0.31693   0.78793   1.000
    C46     C    0.17229   0.25603   0.84211   1.000
    C47     C    0.67239   0.25598   0.84210   1.000
    C48     C    0.07400   0.23801   0.83850   1.000
    C49     C    0.57409   0.23812   0.83849   1.000
    C50     C    0.02574   0.27784   0.77752   1.000
    C51     C    0.52590   0.27816   0.77758   1.000
    C52     C    0.17646   0.16479   0.21990   1.000
    C53     C    0.67654   0.16461   0.21995   1.000
    C54     C    0.07785   0.14359   0.22632   1.000
    C55     C    0.57794   0.14329   0.22644   1.000
    C56     C    0.03023   0.18280   0.28791   1.000
    C57     C    0.53033   0.18237   0.28812   1.000
    C58     C    0.07724   0.24396   0.34197   1.000
    C59     C    0.57730   0.24364   0.34210   1.000
    C60     C    0.17553   0.26199   0.33832   1.000
    C61     C    0.67557   0.26188   0.33833   1.000
    C62     C    0.22376   0.22197   0.27744   1.000
    C63     C    0.72381   0.22186   0.27745   1.000
loop_
    _geom_bond_atom_site_label_1
    _geom_bond_atom_site_label_2
    _geom_bond_distance
    _geom_bond_site_symmetry_2
    _ccdc_geom_bond_type
    C23    C25       1.40353      .   S
    C23    C21       1.39618      .   S
    C22    C24       1.40348      .   S
    C22    C20       1.39540      .   S
    C25    C27       1.39952      .   S
    C24    C26       1.39953      .   S
    H0     C20       1.08834      .   S
    H1     C21       1.08830      .   S
    C20    C18       1.39727      .   S
    C21    C19       1.39718      .   S
    C52    C54       1.41475      .   S
    C52    C62       1.39941      .   S
    C53    C55       1.41479      .   S
    C53    C63       1.39938      .   S
    C26    H3        1.08878      .   S
    C26    C16       1.39946      .   S
    C27    H2        1.08877  1_655   S
    C27    C17       1.39941      .   S
    C54    C56       1.39700      .   S
    C55    C57       1.39709      .   S
    C18    C16       1.41461      .   S
    C19    C17       1.41488      .   S
    H15    C63       1.08882      .   S
    H14    C62       1.08885      .   S
    C62    C60       1.39954      .   S
    C63    C61       1.39956      .   S
    C56    H13       1.08830  1_455   S
    C56    C58       1.39568      .   S
    C57    H12       1.08839      .   S
    C57    C59       1.39564      .   S
    C60    C58       1.40359      .   S
    C61    C59       1.40361      .   S
    C34    C36       1.40357      .   S
    C34    C32       1.39574      .   S
    C35    C37       1.40359      .   S
    C35    C33       1.39557      .   S
    C36    C38       1.40014      .   S
    C37    C39       1.39948      .   S
    H5     C32       1.08839      .   S
    H4     C33       1.08829  1_455   S
    C32    C30       1.39707      .   S
    C33    C31       1.39718      .   S
    C40    C42       1.41490      .   S
    C40    C50       1.39951      .   S
    C41    C43       1.41463      .   S
    C41    C51       1.39972      .   S
    C38    H6        1.08883      .   S
    C38    C28       1.39907      .   S
    C39    H7        1.08886      .   S
    C39    C29       1.39941      .   S
    C42    C44       1.39611      .   S
    C43    C45       1.39726      .   S
    C30    C28       1.41473      .   S
    C31    C29       1.41473      .   S
    H10    C51       1.08890      .   S
    H11    C50       1.08877  1_655   S
    C50    C48       1.39941      .   S
    C51    C49       1.39953      .   S
    C44    H8        1.08835      .   S
    C44    C46       1.39627      .   S
    C45    H9        1.08835      .   S
    C45    C47       1.39544      .   S
    C49    C47       1.40348      .   S
    C48    C46       1.40349      .   S
