# CIF file generated by openbabel 2.4.90, see http://openbabel.sf.net
data_I
_chemical_name_common ''
_cell_length_a 14.357
_cell_length_b 15.243
_cell_length_c 16.405
_cell_angle_alpha 89.997
_cell_angle_beta 90.004
_cell_angle_gamma 97.449
_space_group_name_H-M_alt 'P 1'
_space_group_name_Hall 'P 1'
loop_
    _symmetry_equiv_pos_as_xyz
    x,y,z
loop_
    _atom_site_label
    _atom_site_type_symbol
    _atom_site_fract_x
    _atom_site_fract_y
    _atom_site_fract_z
    _atom_site_occupancy
    H0      H    0.41958   0.49868   0.46392   1.000
    H1      H    0.91960   0.49865   0.46390   1.000
    H2      H    0.33030   0.00130   0.96395   1.000
    H3      H    0.83032   0.00124   0.96392   1.000
    H4      H    0.08041   0.50134   0.53600   1.000
    H5      H    0.58043   0.50131   0.53607   1.000
    H6      H    0.16969   0.99876   0.03606   1.000
    H7      H    0.66972   0.99871   0.03604   1.000
    C8      C    0.48672   0.62534   0.34230   1.000
    C9      C    0.98715   0.62564   0.34228   1.000
    C10     C    0.26861   0.58655   0.33347   1.000
    C11     C    0.76883   0.58666   0.33357   1.000
    C12     C    0.26942   0.78501   0.09673   1.000
    C13     C    0.76938   0.78482   0.09674   1.000
    C14     C    0.47948   0.81924   0.09833   1.000
    C15     C    0.97956   0.81928   0.09829   1.000
    C16     C    0.26340   0.87495   0.84217   1.000
    C17     C    0.76351   0.87482   0.84223   1.000
    C18     C    0.48148   0.91411   0.83329   1.000
    C19     C    0.98154   0.91393   0.83334   1.000
    C20     C    0.48104   0.71538   0.59686   1.000
    C21     C    0.98106   0.71507   0.59694   1.000
    C22     C    0.27074   0.68060   0.59864   1.000
    C23     C    0.77081   0.68056   0.59860   1.000
    C24     C    0.01286   0.37435   0.65771   1.000
    C25     C    0.51329   0.37467   0.65769   1.000
    C26     C    0.23118   0.41334   0.66642   1.000
    C27     C    0.73140   0.41346   0.66653   1.000
    C28     C    0.23064   0.21519   0.90324   1.000
    C29     C    0.73060   0.21500   0.90326   1.000
    C30     C    0.02045   0.18071   0.90170   1.000
    C31     C    0.52053   0.18075   0.90164   1.000
    C32     C    0.23651   0.12520   0.15775   1.000
    C33     C    0.73661   0.12505   0.15781   1.000
    C34     C    0.01847   0.08606   0.16660   1.000
    C35     C    0.51853   0.08588   0.16670   1.000
    C36     C    0.01895   0.28493   0.40305   1.000
    C37     C    0.51896   0.28461   0.40313   1.000
    C38     C    0.22920   0.31944   0.40138   1.000
    C39     C    0.72926   0.31940   0.40130   1.000
    O40     O    0.47894   0.54118   0.34740   1.000
    O41     O    0.97914   0.54149   0.34750   1.000
    O42     O    0.04531   0.68032   0.38172   1.000
    O43     O    0.54453   0.68009   0.38198   1.000
    O44     O    0.19055   0.54686   0.30603   1.000
    O45     O    0.69068   0.54710   0.30616   1.000
    O46     O    0.29769   0.58547   0.40628   1.000
    O47     O    0.79794   0.58549   0.40636   1.000
    O48     O    0.25541   0.86713   0.10450   1.000
    O49     O    0.75561   0.86702   0.10432   1.000
    O50     O    0.22843   0.73863   0.04104   1.000
    O51     O    0.72803   0.73828   0.04132   1.000
    O52     O    0.04424   0.78556   0.06189   1.000
    O53     O    0.54418   0.78556   0.06192   1.000
    O54     O    0.45567   0.89586   0.08546   1.000
    O55     O    0.95576   0.89590   0.08538   1.000
    O56     O    0.38680   0.46769   0.51032   1.000
    O57     O    0.88684   0.46767   0.51031   1.000
    O58     O    0.27152   0.95910   0.84748   1.000
    O59     O    0.77156   0.95897   0.84747   1.000
    O60     O    0.20517   0.82033   0.88159   1.000
    O61     O    0.70539   0.82018   0.88173   1.000
    O62     O    0.05935   0.95413   0.80580   1.000
    O63     O    0.55933   0.95427   0.80580   1.000
    O64     O    0.45258   0.91468   0.90617   1.000
    O65     O    0.95260   0.91463   0.90620   1.000
    O66     O    0.49415   0.63298   0.60410   1.000
    O67     O    0.99451   0.63278   0.60439   1.000
    O68     O    0.02260   0.76162   0.54160   1.000
    O69     O    0.52293   0.76199   0.54172   1.000
    O70     O    0.20640   0.71444   0.56189   1.000
    O71     O    0.70639   0.71437   0.56191   1.000
    O72     O    0.29394   0.60363   0.58628   1.000
    O73     O    0.79416   0.60367   0.58610   1.000
    O74     O    0.36310   0.03226   0.01030   1.000
    O75     O    0.86308   0.03221   0.01035   1.000
    O76     O    0.02087   0.45850   0.65249   1.000
    O77     O    0.52108   0.45882   0.65257   1.000
    O78     O    0.45549   0.31991   0.61801   1.000
    O79     O    0.95469   0.31968   0.61827   1.000
    O80     O    0.30933   0.45289   0.69380   1.000
    O81     O    0.80945   0.45316   0.69396   1.000
    O82     O    0.20206   0.41451   0.59363   1.000
    O83     O    0.70232   0.41452   0.59371   1.000
    O84     O    0.24440   0.13297   0.89568   1.000
    O85     O    0.74459   0.13288   0.89550   1.000
    O86     O    0.27200   0.26173   0.95865   1.000
    O87     O    0.77161   0.26139   0.95893   1.000
    O88     O    0.45585   0.21444   0.93808   1.000
    O89     O    0.95577   0.21444   0.93810   1.000
    O90     O    0.04424   0.10409   0.91459   1.000
    O91     O    0.54431   0.10411   0.91440   1.000
    O92     O    0.11317   0.53233   0.48967   1.000
    O93     O    0.61321   0.53230   0.48967   1.000
    O94     O    0.22847   0.04105   0.15252   1.000
    O95     O    0.72850   0.04090   0.15251   1.000
    O96     O    0.29462   0.17985   0.11825   1.000
    O97     O    0.79483   0.17967   0.11840   1.000
    O98     O    0.44070   0.04570   0.19414   1.000
    O99     O    0.94066   0.04587   0.19412   1.000
    O100    O    0.04742   0.08536   0.09379   1.000
    O101    O    0.54743   0.08531   0.09382   1.000
    O102    O    0.00550   0.36722   0.39560   1.000
    O103    O    0.50585   0.36701   0.39583   1.000
    O104    O    0.47708   0.23800   0.45826   1.000
    O105    O    0.97741   0.23838   0.45830   1.000
    O106    O    0.29361   0.28563   0.43808   1.000
    O107    O    0.79361   0.28555   0.43809   1.000
    O108    O    0.20586   0.39633   0.41385   1.000
    O109    O    0.70606   0.39636   0.41371   1.000
    O110    O    0.13692   0.96779   0.98964   1.000
    O111    O    0.63691   0.96774   0.98962   1.000
loop_
    _geom_bond_atom_site_label_1
    _geom_bond_atom_site_label_2
    _geom_bond_distance
    _geom_bond_site_symmetry_2
    _ccdc_geom_bond_type
    O74    H2        0.98236  1_554   S
    O75    H3        0.98321  1_554   S
    H7     O111      0.98327  1_554   S
    H6     O110      0.98311  1_554   S
    O50    C12       1.25418      .   S
    O51    C13       1.25412      .   S
    O52    C15       1.26772  1_455   S
    O53    C14       1.26763      .   S
    O55    C15       1.27636      .   S
    O54    C14       1.27644      .   S
    O100   C34       1.26519      .   S
    O101   C35       1.26596      .   S
    C12    O48       1.29950      .   S
    C13    O49       1.29964      .   S
    O96    C32       1.27661      .   S
    O97    C33       1.27648      .   S
    O95    C33       1.27588      .   S
    O94    C32       1.27582      .   S
    C34    O99       1.28440  1_455   S
    C35    O98       1.28421      .   S
    O44    C10       1.28400      .   S
    O45    C11       1.28417      .   S
    C10    O46       1.26612      .   S
    C11    O47       1.26603      .   S
    C9     O41       1.27576      .   S
    C9     O42       1.27672  1_655   S
    C8     O40       1.27586      .   S
    C8     O43       1.27651      .   S
    O102   C36       1.29934      .   S
    O103   C37       1.29956      .   S
    C39    O109      1.27674      .   S
    C39    O107      1.26781      .   S
    C38    O108      1.27667      .   S
    C38    O106      1.26750      .   S
    C36    O105      1.25337  1_455   S
    C37    O104      1.25440      .   S
    H1     O57       0.98304      .   S
    H0     O56       0.98309      .   S
    O92    H4        0.98203      .   S
    O93    H5        0.98307      .   S
    O68    C21       1.25442  1_455   S
    O69    C20       1.25453      .   S
    O70    C22       1.26749      .   S
    O71    C23       1.26747      .   S
    O73    C23       1.27673      .   S
    O72    C22       1.27660      .   S
    O82    C26       1.26603      .   S
    O83    C27       1.26624      .   S
    C20    O66       1.29947      .   S
    C21    O67       1.29935      .   S
    O78    C25       1.27651      .   S
    O79    C24       1.27675  1_655   S
    O76    C24       1.27578      .   S
    O77    C25       1.27587      .   S
    C26    O80       1.28401      .   S
    C27    O81       1.28394      .   S
    O63    C18       1.28451      .   S
    O62    C19       1.28453  1_455   S
    C18    O64       1.26600      .   S
    C19    O65       1.26597      .   S
    C16    O58       1.27590      .   S
    C16    O60       1.27659      .   S
    C17    O59       1.27583      .   S
    C17    O61       1.27661      .   S
    O85    C29       1.29950      .   S
    O84    C28       1.29961      .   S
    C31    O91       1.27624      .   S
    C31    O88       1.26767      .   S
    C30    O90       1.27633      .   S
    C30    O89       1.26767  1_455   S
    C28    O86       1.25416      .   S
    C29    O87       1.25412      .   S
