# CIF file generated by openbabel 2.4.90, see http://openbabel.sf.net
data_I
_chemical_name_common ''
_cell_length_a 14.357
_cell_length_b 15.243
_cell_length_c 16.405
_cell_angle_alpha 89.997
_cell_angle_beta 90.004
_cell_angle_gamma 97.449
_space_group_name_H-M_alt 'P 1'
_space_group_name_Hall 'P 1'
loop_
    _symmetry_equiv_pos_as_xyz
    x,y,z
loop_
    _atom_site_label
    _atom_site_type_symbol
    _atom_site_fract_x
    _atom_site_fract_y
    _atom_site_fract_z
    _atom_site_occupancy
    Zr0     Zr   0.09781   0.66242   0.49335   1.000
    Zr1     Zr   0.59772   0.66241   0.49300   1.000
    Zr2     Zr   0.09349   0.47796   0.37500   1.000
    Zr3     Zr   0.59355   0.47794   0.37499   1.000
    Zr4     Zr   0.15245   0.83769   0.99328   1.000
    Zr5     Zr   0.65245   0.83763   0.99332   1.000
    Zr6     Zr   0.15664   0.02215   0.87503   1.000
    Zr7     Zr   0.65669   0.02212   0.87502   1.000
    Zr8     Zr   0.40229   0.33759   0.50659   1.000
    Zr9     Zr   0.90220   0.33758   0.50664   1.000
    Zr10    Zr   0.40645   0.52205   0.62500   1.000
    Zr11    Zr   0.90652   0.52204   0.62499   1.000
    Zr12    Zr   0.34756   0.16238   0.00666   1.000
    Zr13    Zr   0.84756   0.16231   0.00671   1.000
    Zr14    Zr   0.34332   0.97788   0.12496   1.000
    Zr15    Zr   0.84337   0.97784   0.12495   1.000
    Zr16    Zr   0.24998   0.50000   0.50000   1.000
    Zr17    Zr   0.75003   0.50000   0.49999   1.000
    Zr18    Zr   0.00000   0.00000   0.99999   1.000
    Zr19    Zr   0.50000   0.00000   0.99999   1.000
    Zr20    Zr   0.41958   0.49868   0.46392   1.000
    Zr21    Zr   0.91960   0.49865   0.46390   1.000
    Zr22    Zr   0.33030   0.00130   0.96395   1.000
    Zr23    Zr   0.83032   0.00124   0.96392   1.000
    Zr24    Zr   0.08041   0.50134   0.53600   1.000
    Zr25    Zr   0.58043   0.50131   0.53607   1.000
    Zr26    Zr   0.16969   0.99876   0.03606   1.000
    Zr27    Zr   0.66972   0.99871   0.03604   1.000
    Zr28    Zr   0.48672   0.62534   0.34230   1.000
    Zr29    Zr   0.98715   0.62564   0.34228   1.000
    Zr30    Zr   0.26861   0.58655   0.33347   1.000
    Zr31    Zr   0.76883   0.58666   0.33357   1.000
    Zr32    Zr   0.26942   0.78501   0.09673   1.000
    Zr33    Zr   0.76938   0.78482   0.09674   1.000
    Zr34    Zr   0.47948   0.81924   0.09833   1.000
    Zr35    Zr   0.97956   0.81928   0.09829   1.000
    Zr36    Zr   0.26340   0.87495   0.84217   1.000
    Zr37    Zr   0.76351   0.87482   0.84223   1.000
    Zr38    Zr   0.48148   0.91411   0.83329   1.000
    Zr39    Zr   0.98154   0.91393   0.83334   1.000
    Zr40    Zr   0.48104   0.71538   0.59686   1.000
    Zr41    Zr   0.98106   0.71507   0.59694   1.000
    Zr42    Zr   0.27074   0.68060   0.59864   1.000
    Zr43    Zr   0.77081   0.68056   0.59860   1.000
    Zr44    Zr   0.01286   0.37435   0.65771   1.000
    Zr45    Zr   0.51329   0.37467   0.65769   1.000
    Zr46    Zr   0.23118   0.41334   0.66642   1.000
    Zr47    Zr   0.73140   0.41346   0.66653   1.000
    Zr48    Zr   0.23064   0.21519   0.90324   1.000
    Zr49    Zr   0.73060   0.21500   0.90326   1.000
    Zr50    Zr   0.02045   0.18071   0.90170   1.000
    Zr51    Zr   0.52053   0.18075   0.90164   1.000
    Zr52    Zr   0.23651   0.12520   0.15775   1.000
    Zr53    Zr   0.73661   0.12505   0.15781   1.000
    Zr54    Zr   0.01847   0.08606   0.16660   1.000
    Zr55    Zr   0.51853   0.08588   0.16670   1.000
    Zr56    Zr   0.01895   0.28493   0.40305   1.000
    Zr57    Zr   0.51896   0.28461   0.40313   1.000
    Zr58    Zr   0.22920   0.31944   0.40138   1.000
    Zr59    Zr   0.72926   0.31940   0.40130   1.000
    Zr60    Zr   0.47894   0.54118   0.34740   1.000
    Zr61    Zr   0.97914   0.54149   0.34750   1.000
    Zr62    Zr   0.04531   0.68032   0.38172   1.000
    Zr63    Zr   0.54453   0.68009   0.38198   1.000
    Zr64    Zr   0.19055   0.54686   0.30603   1.000
    Zr65    Zr   0.69068   0.54710   0.30616   1.000
    Zr66    Zr   0.29769   0.58547   0.40628   1.000
    Zr67    Zr   0.79794   0.58549   0.40636   1.000
    Zr68    Zr   0.25541   0.86713   0.10450   1.000
    Zr69    Zr   0.75561   0.86702   0.10432   1.000
    Zr70    Zr   0.22843   0.73863   0.04104   1.000
    Zr71    Zr   0.72803   0.73828   0.04132   1.000
    Zr72    Zr   0.04424   0.78556   0.06189   1.000
    Zr73    Zr   0.54418   0.78556   0.06192   1.000
    Zr74    Zr   0.45567   0.89586   0.08546   1.000
    Zr75    Zr   0.95576   0.89590   0.08538   1.000
    Zr76    Zr   0.38680   0.46769   0.51032   1.000
    Zr77    Zr   0.88684   0.46767   0.51031   1.000
    Zr78    Zr   0.27152   0.95910   0.84748   1.000
    Zr79    Zr   0.77156   0.95897   0.84747   1.000
    Zr80    Zr   0.20517   0.82033   0.88159   1.000
    Zr81    Zr   0.70539   0.82018   0.88173   1.000
    Zr82    Zr   0.05935   0.95413   0.80580   1.000
    Zr83    Zr   0.55933   0.95427   0.80580   1.000
    Zr84    Zr   0.45258   0.91468   0.90617   1.000
    Zr85    Zr   0.95260   0.91463   0.90620   1.000
    Zr86    Zr   0.49415   0.63298   0.60410   1.000
    Zr87    Zr   0.99451   0.63278   0.60439   1.000
    Zr88    Zr   0.02260   0.76162   0.54160   1.000
    Zr89    Zr   0.52293   0.76199   0.54172   1.000
    Zr90    Zr   0.20640   0.71444   0.56189   1.000
    Zr91    Zr   0.70639   0.71437   0.56191   1.000
    Zr92    Zr   0.29394   0.60363   0.58628   1.000
    Zr93    Zr   0.79416   0.60367   0.58610   1.000
    Zr94    Zr   0.36310   0.03226   0.01030   1.000
    Zr95    Zr   0.86308   0.03221   0.01035   1.000
    Zr96    Zr   0.02087   0.45850   0.65249   1.000
    Zr97    Zr   0.52108   0.45882   0.65257   1.000
    Zr98    Zr   0.45549   0.31991   0.61801   1.000
    Zr99    Zr   0.95469   0.31968   0.61827   1.000
    Zr100   Zr   0.30933   0.45289   0.69380   1.000
    Zr101   Zr   0.80945   0.45316   0.69396   1.000
    Zr102   Zr   0.20206   0.41451   0.59363   1.000
    Zr103   Zr   0.70232   0.41452   0.59371   1.000
    Zr104   Zr   0.24440   0.13297   0.89568   1.000
    Zr105   Zr   0.74459   0.13288   0.89550   1.000
    Zr106   Zr   0.27200   0.26173   0.95865   1.000
    Zr107   Zr   0.77161   0.26139   0.95893   1.000
    Zr108   Zr   0.45585   0.21444   0.93808   1.000
    Zr109   Zr   0.95577   0.21444   0.93810   1.000
    Zr110   Zr   0.04424   0.10409   0.91459   1.000
    Zr111   Zr   0.54431   0.10411   0.91440   1.000
    Zr112   Zr   0.11317   0.53233   0.48967   1.000
    Zr113   Zr   0.61321   0.53230   0.48967   1.000
    Zr114   Zr   0.22847   0.04105   0.15252   1.000
    Zr115   Zr   0.72850   0.04090   0.15251   1.000
    Zr116   Zr   0.29462   0.17985   0.11825   1.000
    Zr117   Zr   0.79483   0.17967   0.11840   1.000
    Zr118   Zr   0.44070   0.04570   0.19414   1.000
    Zr119   Zr   0.94066   0.04587   0.19412   1.000
    Zr120   Zr   0.04742   0.08536   0.09379   1.000
    Zr121   Zr   0.54743   0.08531   0.09382   1.000
    Zr122   Zr   0.00550   0.36722   0.39560   1.000
    Zr123   Zr   0.50585   0.36701   0.39583   1.000
    Zr124   Zr   0.47708   0.23800   0.45826   1.000
    Zr125   Zr   0.97741   0.23838   0.45830   1.000
    Zr126   Zr   0.29361   0.28563   0.43808   1.000
    Zr127   Zr   0.79361   0.28555   0.43809   1.000
    Zr128   Zr   0.20586   0.39633   0.41385   1.000
    Zr129   Zr   0.70606   0.39636   0.41371   1.000
    Zr130   Zr   0.13692   0.96779   0.98964   1.000
    Zr131   Zr   0.63691   0.96774   0.98962   1.000
    O132    O    0.35533   0.09732   0.00848   1.000
    O133    O    0.32109   0.17111   0.06246   1.000
    O134    O    0.40171   0.18841   0.97237   1.000
    O135    O    0.30978   0.21205   0.98265   1.000
    O136    O    0.85532   0.09726   0.00853   1.000
    O137    O    0.82120   0.17099   0.06256   1.000
    O138    O    0.90167   0.18837   0.97240   1.000
    O139    O    0.80959   0.21185   0.98282   1.000
    O140    O    0.34670   0.01678   0.98712   1.000
    O141    O    0.84670   0.01673   0.98713   1.000
    O142    O    0.65331   0.98323   0.01283   1.000
    O143    O    0.15331   0.98327   0.01285   1.000
    O144    O    0.24892   0.76182   0.06888   1.000
    O145    O    0.19044   0.78816   0.01716   1.000
    O146    O    0.74870   0.76155   0.06903   1.000
    O147    O    0.69024   0.78795   0.01732   1.000
    O148    O    0.01190   0.80242   0.08009   1.000
    O149    O    0.09835   0.81162   0.02758   1.000
    O150    O    0.51183   0.80240   0.08013   1.000
    O151    O    0.59832   0.81159   0.02762   1.000
    O152    O    0.96766   0.85759   0.09183   1.000
    O153    O    0.97788   0.94795   0.04268   1.000
    O154    O    0.46757   0.85755   0.09189   1.000
    O155    O    0.47784   0.94793   0.04272   1.000
    O156    O    0.03295   0.08571   0.13019   1.000
    O157    O    0.02371   0.04268   0.04689   1.000
    O158    O    0.53298   0.08559   0.13026   1.000
    O159    O    0.52372   0.04266   0.04690   1.000
    O160    O    0.26241   0.82607   0.10061   1.000
    O161    O    0.76249   0.82592   0.10053   1.000
    O162    O    0.79949   0.92243   0.11463   1.000
    O163    O    0.29936   0.92250   0.11473   1.000
    O164    O    0.26556   0.15252   0.13800   1.000
    O165    O    0.76572   0.15236   0.13810   1.000
    O166    O    0.78593   0.00937   0.13873   1.000
    O167    O    0.89202   0.01186   0.15953   1.000
    O168    O    0.28589   0.00946   0.13874   1.000
    O169    O    0.39201   0.01179   0.15955   1.000
    O170    O    0.73255   0.08298   0.15516   1.000
    O171    O    0.23249   0.08312   0.15513   1.000
    O172    O    0.97957   0.06596   0.18036   1.000
    O173    O    0.47961   0.06579   0.18042   1.000
    O174    O    0.22958   0.56671   0.31975   1.000
    O175    O    0.14202   0.51241   0.34052   1.000
    O176    O    0.72975   0.56688   0.31987   1.000
    O177    O    0.64212   0.51252   0.34058   1.000
    O178    O    0.28315   0.58601   0.36988   1.000
    O179    O    0.78338   0.58607   0.36996   1.000
    O180    O    0.98314   0.58357   0.34489   1.000
    O181    O    0.01623   0.65298   0.36200   1.000
    O182    O    0.48283   0.58326   0.34485   1.000
    O183    O    0.51562   0.65272   0.36214   1.000
    O184    O    0.53625   0.50956   0.36119   1.000
    O185    O    0.03631   0.50973   0.36125   1.000
    O186    O    0.54970   0.42248   0.38541   1.000
    O187    O    0.04950   0.42259   0.38530   1.000
    O188    O    0.07156   0.67137   0.43754   1.000
    O189    O    0.57112   0.67125   0.43749   1.000
    O190    O    0.01223   0.32607   0.39932   1.000
    O191    O    0.51241   0.32581   0.39948   1.000
    O192    O    0.71766   0.35788   0.40751   1.000
    O193    O    0.76144   0.30247   0.41969   1.000
    O194    O    0.21753   0.35788   0.40762   1.000
    O195    O    0.26140   0.30253   0.41973   1.000
    O196    O    0.99818   0.26165   0.43067   1.000
    O197    O    0.49802   0.26131   0.43069   1.000
    O198    O    0.27384   0.54274   0.45314   1.000
    O199    O    0.77398   0.54274   0.45317   1.000
    O200    O    0.72804   0.44818   0.45685   1.000
    O201    O    0.22792   0.44817   0.45692   1.000
    O202    O    0.34795   0.31161   0.47233   1.000
    O203    O    0.84791   0.31156   0.47236   1.000
    O204    O    0.43968   0.28779   0.48242   1.000
    O205    O    0.93981   0.28798   0.48247   1.000
    O206    O    0.90322   0.48316   0.48711   1.000
    O207    O    0.40319   0.48319   0.48712   1.000
    O208    O    0.10549   0.59737   0.49151   1.000
    O209    O    0.09679   0.51683   0.51284   1.000
    O210    O    0.60547   0.59736   0.49134   1.000
    O211    O    0.59682   0.51681   0.51287   1.000
    O212    O    0.56032   0.71220   0.51736   1.000
    O213    O    0.65206   0.68839   0.52746   1.000
    O214    O    0.06020   0.71202   0.51747   1.000
    O215    O    0.15210   0.68843   0.52762   1.000
    O216    O    0.77209   0.55184   0.54304   1.000
    O217    O    0.72617   0.45726   0.54685   1.000
    O218    O    0.27196   0.55182   0.54314   1.000
    O219    O    0.22602   0.45725   0.54681   1.000
    O220    O    0.39454   0.40264   0.50845   1.000
    O221    O    0.42889   0.32875   0.56230   1.000
    O222    O    0.89452   0.40262   0.50848   1.000
    O223    O    0.92845   0.32863   0.56245   1.000
    O224    O    0.00183   0.73834   0.56927   1.000
    O225    O    0.50198   0.73869   0.56929   1.000
    O226    O    0.23857   0.69752   0.58027   1.000
    O227    O    0.73860   0.69746   0.58026   1.000
    O228    O    0.78249   0.64212   0.59235   1.000
    O229    O    0.28234   0.64212   0.59246   1.000
    O230    O    0.21662   0.41392   0.63002   1.000
    O231    O    0.71686   0.41399   0.63012   1.000
    O232    O    0.48760   0.67418   0.60048   1.000
    O233    O    0.98779   0.67392   0.60067   1.000
    O234    O    0.45030   0.57752   0.61455   1.000
    O235    O    0.95051   0.57741   0.61469   1.000
    O236    O    0.48439   0.34729   0.63785   1.000
    O237    O    0.98377   0.34701   0.63799   1.000
    O238    O    0.96369   0.49027   0.63874   1.000
    O239    O    0.85798   0.48760   0.65948   1.000
    O240    O    0.46376   0.49044   0.63879   1.000
    O241    O    0.35789   0.48747   0.65940   1.000
    O242    O    0.01686   0.41643   0.65510   1.000
    O243    O    0.51718   0.41674   0.65513   1.000
    O244    O    0.27025   0.43311   0.68011   1.000
    O245    O    0.77043   0.43331   0.68024   1.000
    O246    O    0.52040   0.93419   0.81954   1.000
    O247    O    0.60801   0.98819   0.84041   1.000
    O248    O    0.02044   0.93403   0.81957   1.000
    O249    O    0.10799   0.98814   0.84041   1.000
    O250    O    0.46703   0.91440   0.86973   1.000
    O251    O    0.96707   0.91428   0.86977   1.000
    O252    O    0.26746   0.91703   0.84482   1.000
    O253    O    0.23428   0.84764   0.86188   1.000
    O254    O    0.76754   0.91690   0.84485   1.000
    O255    O    0.73445   0.84750   0.86198   1.000
    O256    O    0.71413   0.99055   0.86124   1.000
    O257    O    0.21408   0.99063   0.86125   1.000
    O258    O    0.70064   0.07750   0.88526   1.000
    O259    O    0.20052   0.07756   0.88535   1.000
    O260    O    0.17881   0.82901   0.93744   1.000
    O261    O    0.67892   0.82890   0.93752   1.000
    O262    O    0.73759   0.17394   0.89938   1.000
    O263    O    0.23752   0.17408   0.89946   1.000
    O264    O    0.53242   0.14243   0.90802   1.000
    O265    O    0.48819   0.19760   0.91986   1.000
    O266    O    0.03235   0.14240   0.90814   1.000
    O267    O    0.98811   0.19757   0.91990   1.000
    O268    O    0.25132   0.23846   0.93095   1.000
    O269    O    0.75111   0.23820   0.93109   1.000
    O270    O    0.47629   0.95734   0.95308   1.000
    O271    O    0.97630   0.95732   0.95309   1.000
    O272    O    0.52216   0.05205   0.95720   1.000
    O273    O    0.02212   0.05204   0.95729   1.000
    O274    O    0.64468   0.90269   0.99147   1.000
    O275    O    0.14469   0.90274   0.99146   1.000
    O276    O    0.39949   0.93687   0.10521   1.000
    O277    O    0.89957   0.93687   0.10517   1.000
    O278    O    0.39662   0.49487   0.56766   1.000
    O279    O    0.31839   0.48385   0.50516   1.000
    O280    O    0.89668   0.49485   0.56765   1.000
    O281    O    0.81843   0.48383   0.50515   1.000
    O282    O    0.35020   0.56284   0.60564   1.000
    O283    O    0.85034   0.56286   0.60554   1.000
    O284    O    0.35321   0.00507   0.06763   1.000
    O285    O    0.43155   0.01613   0.00514   1.000
    O286    O    0.85323   0.00503   0.06765   1.000
    O287    O    0.93154   0.01611   0.00517   1.000
    O288    O    0.10044   0.06312   0.89481   1.000
    O289    O    0.60050   0.06311   0.89471   1.000
    O290    O    0.10333   0.50514   0.43233   1.000
    O291    O    0.18158   0.51616   0.49483   1.000
    O292    O    0.60338   0.50512   0.43233   1.000
    O293    O    0.68162   0.51615   0.49483   1.000
    O294    O    0.14967   0.43715   0.39442   1.000
    O295    O    0.64981   0.43715   0.39435   1.000
    O296    O    0.14678   0.99497   0.93233   1.000
    O297    O    0.06846   0.98389   0.99481   1.000
    O298    O    0.64680   0.99493   0.93232   1.000
    O299    O    0.56846   0.98387   0.99481   1.000
    N300    N    0.12256   0.29724   0.78241   1.000
    O301    O    0.16199   0.34095   0.73935   1.000
    O302    O    0.16201   0.26642   0.82754   1.000
    O303    O    0.08489   0.25330   0.82626   1.000
    O304    O    0.08274   0.32592   0.73559   1.000
    N305    N    0.37727   0.70264   0.21749   1.000
    O306    O    0.41499   0.74660   0.17370   1.000
    O307    O    0.41700   0.67387   0.26434   1.000
    O308    O    0.33781   0.65894   0.26055   1.000
    O309    O    0.33790   0.73358   0.17240   1.000
    N310    N    0.62702   0.20230   0.28251   1.000
    O311    O    0.58763   0.15844   0.23954   1.000
    O312    O    0.66680   0.17357   0.23569   1.000
    O313    O    0.58757   0.23321   0.32756   1.000
    O314    O    0.66472   0.24647   0.32616   1.000
    N315    N    0.62275   0.29737   0.78247   1.000
    O316    O    0.58503   0.25340   0.82627   1.000
    O317    O    0.66212   0.26643   0.82757   1.000
    O318    O    0.66220   0.34107   0.73943   1.000
    O319    O    0.58302   0.32613   0.73563   1.000
    N320    N    0.12695   0.20256   0.28241   1.000
    O321    O    0.08752   0.23350   0.32746   1.000
    O322    O    0.16466   0.24664   0.32613   1.000
    O323    O    0.08755   0.15870   0.23943   1.000
    O324    O    0.16672   0.17378   0.23562   1.000
    N325    N    0.37299   0.79769   0.71747   1.000
    O326    O    0.33529   0.75352   0.67379   1.000
    O327    O    0.41238   0.84155   0.76044   1.000
    O328    O    0.41243   0.76678   0.67242   1.000
    O329    O    0.33321   0.82643   0.76428   1.000
    N330    N    0.87745   0.70275   0.21755   1.000
    O331    O    0.83802   0.65904   0.26063   1.000
    O332    O    0.91726   0.67407   0.26438   1.000
    O333    O    0.83800   0.73357   0.17241   1.000
    O334    O    0.91512   0.74669   0.17372   1.000
    N335    N    0.87306   0.79744   0.71758   1.000
    O336    O    0.83330   0.82623   0.76437   1.000
    O337    O    0.91249   0.76650   0.67253   1.000
    O338    O    0.83535   0.75336   0.67386   1.000
    O339    O    0.91246   0.84130   0.76054   1.000
loop_
    _geom_bond_atom_site_label_1
    _geom_bond_atom_site_label_2
    _geom_bond_distance
    _geom_bond_site_symmetry_2
    _ccdc_geom_bond_type
    Zr12   O132      1.01264      .   S
    Zr94   O132      1.01264      .   S
    Zr12   O133      1.00654      .   S
    Zr116  O133      1.00654      .   S
    Zr12   O134      0.99914  1_554   S
    Zr108  O134      0.99914      .   S
    Zr12   O135      1.06256  1_554   S
    Zr106  O135      1.06256      .   S
    Zr13   O136      1.01248      .   S
    Zr95   O136      1.01248      .   S
    Zr13   O137      1.00654      .   S
    Zr117  O137      1.00654      .   S
    Zr13   O138      0.99901  1_554   S
    Zr109  O138      0.99901      .   S
    Zr13   O139      1.06199  1_554   S
    Zr107  O139      1.06199      .   S
    Zr94   O140      0.49118  1_554   S
    Zr22   O140      0.49118      .   S
    Zr95   O141      0.49161  1_554   S
    Zr23   O141      0.49161      .   S
    Zr27   O142      0.49163      .   S
    Zr131  O142      0.49163  1_556   S
    Zr26   O143      0.49156      .   S
    Zr130  O143      0.49156  1_556   S
    Zr70   O144      0.62709      .   S
    Zr32   O144      0.62709      .   S
    Zr70   O145      1.06193      .   S
    Zr4    O145      1.06193  1_556   S
    Zr71   O146      0.62706      .   S
    Zr33   O146      0.62706      .   S
    Zr71   O147      1.06260      .   S
    Zr5    O147      1.06260  1_556   S
    Zr72   O148      0.63386      .   S
    Zr35   O148      0.63386  1_655   S
    Zr72   O149      0.99897      .   S
    Zr4    O149      0.99897  1_556   S
    Zr73   O150      0.63381      .   S
    Zr34   O150      0.63381      .   S
    Zr73   O151      0.99914      .   S
    Zr5    O151      0.99914  1_556   S
    Zr75   O152      0.63818      .   S
    Zr35   O152      0.63818      .   S
    Zr75   O153      1.07497      .   S
    Zr18   O153      1.07497  1_446   S
    Zr74   O154      0.63822      .   S
    Zr34   O154      0.63822      .   S
    Zr74   O155      1.07573      .   S
    Zr19   O155      1.07573  1_546   S
    Zr120  O156      0.63260      .   S
    Zr54   O156      0.63260      .   S
    Zr120  O157      1.03618      .   S
    Zr18   O157      1.03618  1_556   S
    Zr121  O158      0.63298      .   S
    Zr55   O158      0.63298      .   S
    Zr121  O159      1.03616      .   S
    Zr19   O159      1.03616  1_556   S
    Zr32   O160      0.64975      .   S
    Zr68   O160      0.64975      .   S
    Zr33   O161      0.64982      .   S
    Zr69   O161      0.64982      .   S
    Zr69   O162      1.00045      .   S
    Zr15   O162      1.00045      .   S
    Zr68   O163      1.00037      .   S
    Zr14   O163      1.00037      .   S
    Zr116  O164      0.63830      .   S
    Zr52   O164      0.63830      .   S
    Zr117  O165      0.63824      .   S
    Zr53   O165      0.63824      .   S
    Zr15   O166      1.03192  1_565   S
    Zr115  O166      1.03192      .   S
    Zr15   O167      0.99227  1_565   S
    Zr119  O167      0.99227      .   S
    Zr14   O168      1.03223  1_565   S
    Zr114  O168      1.03223      .   S
    Zr14   O169      0.99203  1_565   S
    Zr118  O169      0.99203      .   S
    Zr115  O170      0.63794      .   S
    Zr53   O170      0.63794      .   S
    Zr114  O171      0.63791      .   S
    Zr52   O171      0.63791      .   S
    Zr54   O172      0.64220  1_455   S
    Zr119  O172      0.64220      .   S
    Zr55   O173      0.64210      .   S
    Zr118  O173      0.64210      .   S
    Zr64   O174      0.64200      .   S
    Zr30   O174      0.64200      .   S
    Zr64   O175      0.99319      .   S
    Zr2    O175      0.99319      .   S
    Zr65   O176      0.64208      .   S
    Zr31   O176      0.64208      .   S
    Zr65   O177      0.99369      .   S
    Zr3    O177      0.99369      .   S
    Zr30   O178      0.63306      .   S
    Zr66   O178      0.63306      .   S
    Zr31   O179      0.63302      .   S
    Zr67   O179      0.63302      .   S
    Zr29   O180      0.63788      .   S
    Zr61   O180      0.63788      .   S
    Zr29   O181      0.63836  1_655   S
    Zr62   O181      0.63836      .   S
    Zr28   O182      0.63793      .   S
    Zr60   O182      0.63793      .   S
    Zr28   O183      0.63825      .   S
    Zr63   O183      0.63825      .   S
    Zr60   O184      1.03113      .   S
    Zr3    O184      1.03113      .   S
    Zr61   O185      1.03067  1_655   S
    Zr2    O185      1.03067      .   S
    Zr3    O186      1.00116      .   S
    Zr123  O186      1.00116      .   S
    Zr2    O187      1.00083      .   S
    Zr122  O187      1.00083      .   S
    Zr62   O188      1.00614      .   S
    Zr0    O188      1.00614      .   S
    Zr63   O189      1.00326      .   S
    Zr1    O189      1.00326      .   S
    Zr122  O190      0.64967      .   S
    Zr56   O190      0.64967      .   S
    Zr123  O191      0.64978      .   S
    Zr57   O191      0.64978      .   S
    Zr59   O192      0.63837      .   S
    Zr129  O192      0.63837      .   S
    Zr59   O193      0.63390      .   S
    Zr127  O193      0.63390      .   S
    Zr58   O194      0.63834      .   S
    Zr128  O194      0.63834      .   S
    Zr58   O195      0.63375      .   S
    Zr126  O195      0.63375      .   S
    Zr56   O196      0.62669  1_455   S
    Zr125  O196      0.62669      .   S
    Zr57   O197      0.62720      .   S
    Zr124  O197      0.62720      .   S
    Zr66   O198      1.03671      .   S
    Zr16   O198      1.03671      .   S
    Zr67   O199      1.03661      .   S
    Zr17   O199      1.03661      .   S
    Zr129  O200      1.07692      .   S
    Zr17   O200      1.07692      .   S
    Zr128  O201      1.07662      .   S
    Zr16   O201      1.07662      .   S
    Zr126  O202      1.00054      .   S
    Zr8    O202      1.00054      .   S
    Zr127  O203      1.00043      .   S
    Zr9    O203      1.00043      .   S
    Zr124  O204      1.06167      .   S
    Zr8    O204      1.06167      .   S
    Zr125  O205      1.06121      .   S
    Zr9    O205      1.06121      .   S
    Zr21   O206      0.49152      .   S
    Zr77   O206      0.49152      .   S
    Zr20   O207      0.49154      .   S
    Zr76   O207      0.49154      .   S
    Zr112  O208      1.01217      .   S
    Zr0    O208      1.01217      .   S
    Zr112  O209      0.49102      .   S
    Zr24   O209      0.49102      .   S
    Zr113  O210      1.01241      .   S
    Zr1    O210      1.01241      .   S
    Zr113  O211      0.49154      .   S
    Zr25   O211      0.49154      .   S
    Zr1    O212      1.06287      .   S
    Zr89   O212      1.06287      .   S
    Zr1    O213      1.00236      .   S
    Zr91   O213      1.00236      .   S
    Zr0    O214      1.06096      .   S
    Zr88   O214      1.06096      .   S
    Zr0    O215      1.00038      .   S
    Zr90   O215      1.00038      .   S
    Zr17   O216      1.07647      .   S
    Zr93   O216      1.07647      .   S
    Zr17   O217      1.03668      .   S
    Zr103  O217      1.03668      .   S
    Zr16   O218      1.07689      .   S
    Zr92   O218      1.07689      .   S
    Zr16   O219      1.03663      .   S
    Zr102  O219      1.03663      .   S
    Zr8    O220      1.01250      .   S
    Zr76   O220      1.01250      .   S
    Zr8    O221      1.00626      .   S
    Zr98   O221      1.00626      .   S
    Zr9    O222      1.01217      .   S
    Zr77   O222      1.01217      .   S
    Zr9    O223      1.00611      .   S
    Zr99   O223      1.00611      .   S
    Zr88   O224      0.62721      .   S
    Zr41   O224      0.62721  1_655   S
    Zr89   O225      0.62726      .   S
    Zr40   O225      0.62726      .   S
    Zr90   O226      0.63375      .   S
    Zr42   O226      0.63375      .   S
    Zr91   O227      0.63374      .   S
    Zr43   O227      0.63374      .   S
    Zr93   O228      0.63836      .   S
    Zr43   O228      0.63836      .   S
    Zr92   O229      0.63830      .   S
    Zr42   O229      0.63830      .   S
    Zr102  O230      0.63301      .   S
    Zr46   O230      0.63301      .   S
    Zr103  O231      0.63312      .   S
    Zr47   O231      0.63312      .   S
    Zr40   O232      0.64973      .   S
    Zr86   O232      0.64973      .   S
    Zr41   O233      0.64967      .   S
    Zr87   O233      0.64967      .   S
    Zr86   O234      1.00122      .   S
    Zr10   O234      1.00122      .   S
    Zr87   O235      1.00085      .   S
    Zr11   O235      1.00085      .   S
    Zr98   O236      0.63825      .   S
    Zr45   O236      0.63825      .   S
    Zr99   O237      0.63838      .   S
    Zr44   O237      0.63838  1_455   S
    Zr11   O238      1.03067      .   S
    Zr96   O238      1.03067  1_455   S
    Zr11   O239      0.99312      .   S
    Zr101  O239      0.99312      .   S
    Zr10   O240      1.03111      .   S
    Zr97   O240      1.03111      .   S
    Zr10   O241      0.99356      .   S
    Zr100  O241      0.99356      .   S
    Zr96   O242      0.63789      .   S
    Zr44   O242      0.63789      .   S
    Zr97   O243      0.63793      .   S
    Zr45   O243      0.63793      .   S
    Zr46   O244      0.64200      .   S
    Zr100  O244      0.64200      .   S
    Zr47   O245      0.64197      .   S
    Zr101  O245      0.64197      .   S
    Zr83   O246      0.64226      .   S
    Zr38   O246      0.64226      .   S
    Zr83   O247      0.99225      .   S
    Zr7    O247      0.99225  1_545   S
    Zr82   O248      0.64226      .   S
    Zr39   O248      0.64226  1_655   S
    Zr82   O249      0.99254      .   S
    Zr6    O249      0.99254  1_545   S
    Zr38   O250      0.63300      .   S
    Zr84   O250      0.63300      .   S
    Zr39   O251      0.63298      .   S
    Zr85   O251      0.63298      .   S
    Zr36   O252      0.63795      .   S
    Zr78   O252      0.63795      .   S
    Zr36   O253      0.63830      .   S
    Zr80   O253      0.63830      .   S
    Zr37   O254      0.63792      .   S
    Zr79   O254      0.63792      .   S
    Zr37   O255      0.63831      .   S
    Zr81   O255      0.63831      .   S
    Zr79   O256      1.03225      .   S
    Zr7    O256      1.03225  1_545   S
    Zr78   O257      1.03191      .   S
    Zr6    O257      1.03191  1_545   S
    Zr7    O258      1.00041      .   S
    Zr105  O258      1.00041      .   S
    Zr6    O259      1.00048      .   S
    Zr104  O259      1.00048      .   S
    Zr80   O260      1.00652      .   S
    Zr4    O260      1.00652      .   S
    Zr81   O261      1.00650      .   S
    Zr5    O261      1.00650      .   S
    Zr105  O262      0.64975      .   S
    Zr49   O262      0.64975      .   S
    Zr104  O263      0.64981      .   S
    Zr48   O263      0.64981      .   S
    Zr51   O264      0.63812      .   S
    Zr111  O264      0.63812      .   S
    Zr51   O265      0.63384      .   S
    Zr108  O265      0.63384      .   S
    Zr50   O266      0.63817      .   S
    Zr110  O266      0.63817      .   S
    Zr50   O267      0.63383  1_455   S
    Zr109  O267      0.63383      .   S
    Zr48   O268      0.62708      .   S
    Zr106  O268      0.62708      .   S
    Zr49   O269      0.62706      .   S
    Zr107  O269      0.62706      .   S
    Zr84   O270      1.03613      .   S
    Zr19   O270      1.03613  1_545   S
    Zr85   O271      1.03613      .   S
    Zr18   O271      1.03613  1_445   S
    Zr111  O272      1.07617      .   S
    Zr19   O272      1.07617      .   S
    Zr110  O273      1.07494      .   S
    Zr18   O273      1.07494      .   S
    Zr131  O274      1.01268      .   S
    Zr5    O274      1.01268      .   S
    Zr130  O275      1.01248      .   S
    Zr4    O275      1.01248      .   S
    Zr74   O276      1.12999      .   S
    Zr14   O276      1.12999      .   S
    Zr75   O277      1.13005      .   S
    Zr15   O277      1.13005      .   S
    Zr76   O278      1.03019      .   S
    Zr10   O278      1.03019      .   S
    Zr76   O279      1.04644      .   S
    Zr16   O279      1.04644      .   S
    Zr77   O280      1.03022      .   S
    Zr11   O280      1.03022      .   S
    Zr77   O281      1.04649      .   S
    Zr17   O281      1.04649      .   S
    Zr92   O282      1.12692      .   S
    Zr10   O282      1.12692      .   S
    Zr93   O283      1.12670      .   S
    Zr11   O283      1.12670      .   S
    Zr94   O284      1.03016      .   S
    Zr14   O284      1.03016  1_565   S
    Zr94   O285      1.04697      .   S
    Zr19   O285      1.04697  1_556   S
    Zr95   O286      1.02962      .   S
    Zr15   O286      1.02962  1_565   S
    Zr95   O287      1.04693      .   S
    Zr18   O287      1.04693  1_456   S
    Zr110  O288      1.13003      .   S
    Zr6    O288      1.13003      .   S
    Zr111  O289      1.12977      .   S
    Zr7    O289      1.12977      .   S
    Zr112  O290      1.03014      .   S
    Zr2    O290      1.03014      .   S
    Zr112  O291      1.04649      .   S
    Zr16   O291      1.04649      .   S
    Zr113  O292      1.03019      .   S
    Zr3    O292      1.03019      .   S
    Zr113  O293      1.04645      .   S
    Zr17   O293      1.04645      .   S
    Zr128  O294      1.12661      .   S
    Zr2    O294      1.12661      .   S
    Zr129  O295      1.12689      .   S
    Zr3    O295      1.12689      .   S
    Zr130  O296      1.02968      .   S
    Zr6    O296      1.02968  1_545   S
    Zr130  O297      1.04699      .   S
    Zr18   O297      1.04699  1_545   S
    Zr131  O298      1.02968      .   S
    Zr7    O298      1.02968  1_545   S
    Zr131  O299      1.04701      .   S
    Zr19   O299      1.04701  1_545   S
    N300   O301      1.07967      .   S
    Zr46   O301      1.83066      .   S
    N300   O302      1.07640      .   S
    Zr48   O302      1.82271      .   S
    N300   O303      1.07911      .   S
    Zr50   O303      1.82939      .   S
    N300   O304      1.08284      .   S
    Zr44   O304      1.83732      .   S
    N305   O306      1.07899      .   S
    Zr34   O306      1.82930      .   S
    N305   O307      1.08303      .   S
    Zr28   O307      1.83766      .   S
    N305   O308      1.07974      .   S
    Zr30   O308      1.83067      .   S
    N305   O309      1.07620      .   S
    Zr32   O309      1.82256      .   S
    N310   O311      1.07966      .   S
    Zr55   O311      1.83053      .   S
    N310   O312      1.08296      .   S
    Zr53   O312      1.83753      .   S
    N310   O313      1.07622      .   S
    Zr57   O313      1.82245      .   S
    N310   O314      1.07914      .   S
    Zr59   O314      1.82940      .   S
    N315   O316      1.07913      .   S
    Zr51   O316      1.82945      .   S
    N315   O317      1.07635      .   S
    Zr49   O317      1.82272      .   S
    N315   O318      1.07957      .   S
    Zr47   O318      1.83043      .   S
    N315   O319      1.08294      .   S
    Zr45   O319      1.83739      .   S
    N320   O321      1.07627      .   S
    Zr56   O321      1.82257      .   S
    N320   O322      1.07917      .   S
    Zr58   O322      1.82957      .   S
    N320   O323      1.07979      .   S
    Zr54   O323      1.83093      .   S
    N320   O324      1.08297      .   S
    Zr52   O324      1.83759      .   S
    N325   O326      1.07937      .   S
    Zr42   O326      1.82958      .   S
    N325   O327      1.07973      .   S
    Zr38   O327      1.83061      .   S
    N325   O328      1.07615      .   S
    Zr40   O328      1.82232      .   S
    N325   O329      1.08290      .   S
    Zr36   O329      1.83765      .   S
    N330   O331      1.07984      .   S
    Zr31   O331      1.83085      .   S
    N330   O332      1.08298      .   S
    Zr29   O332      1.83751      .   S
    N330   O333      1.07646      .   S
    Zr33   O333      1.82237      .   S
    N330   O334      1.07896      .   S
    Zr35   O334      1.82918      .   S
    N335   O336      1.08296      .   S
    Zr37   O336      1.83758      .   S
    N335   O337      1.07626      .   S
    Zr41   O337      1.82256      .   S
    N335   O338      1.07918      .   S
    Zr43   O338      1.82964      .   S
    N335   O339      1.07967      .   S
    Zr39   O339      1.83053      .   S
