# CIF file generated by openbabel 2.4.90, see http://openbabel.sf.net
data_I
_chemical_name_common 'VESTA_phase_1'
_cell_length_a 13.585
_cell_length_b 14.447
_cell_length_c 14.451
_cell_angle_alpha 69.286
_cell_angle_beta 71.796
_cell_angle_gamma 108.206
_space_group_name_H-M_alt 'P 1'
_space_group_name_Hall 'P 1'
loop_
    _symmetry_equiv_pos_as_xyz
    x,y,z
loop_
    _atom_site_label
    _atom_site_type_symbol
    _atom_site_fract_x
    _atom_site_fract_y
    _atom_site_fract_z
    _atom_site_occupancy
    Ga0     Ga   0.14475   0.16924   0.37718   1.000
    Ga1     Ga   0.18666   0.86710   0.54522   1.000
    Ga2     Ga   0.52195   0.37718   0.45341   1.000
    Ga3     Ga   0.73232   0.54519   0.58803   1.000
    Ga4     Ga   0.97520   0.45360   0.16950   1.000
    Ga5     Ga   0.32010   0.58784   0.86694   1.000
    Ga6     Ga   0.85524   0.83079   0.62280   1.000
    Ga7     Ga   0.81334   0.13293   0.45478   1.000
    Ga8     Ga   0.47804   0.62285   0.54659   1.000
    Ga9     Ga   0.26768   0.45484   0.41197   1.000
    Ga10    Ga   0.02479   0.54644   0.83050   1.000
    Ga11    Ga   0.67990   0.41219   0.13306   1.000
    P12     P    0.06470   0.94639   0.39589   1.000
    P13     P    0.06507   0.35410   0.33296   1.000
    P14     P    0.46161   0.39604   0.65772   1.000
    P15     P    0.39786   0.33276   0.31304   1.000
    P16     P    0.11887   0.65771   0.94600   1.000
    P17     P    0.71115   0.31327   0.35405   1.000
    P18     P    0.93530   0.05364   0.60411   1.000
    P19     P    0.93493   0.64593   0.66700   1.000
    P20     P    0.53838   0.60399   0.34228   1.000
    P21     P    0.60214   0.66728   0.68697   1.000
    P22     P    0.88112   0.34233   0.05400   1.000
    P23     P    0.28885   0.68676   0.64595   1.000
    H24     H    0.31731   0.83855   0.39441   1.000
    H25     H    0.23722   0.89393   0.34694   1.000
    H26     H    0.30407   0.08575   0.45657   1.000
    H27     H    0.10060   0.80236   0.75930   1.000
    H28     H    0.03802   0.87288   0.70306   1.000
    H29     H    0.46948   0.02073   0.25686   1.000
    H30     H    0.36631   0.07240   0.28273   1.000
    H31     H    0.38462   0.10076   0.58030   1.000
    H32     H    0.35333   0.95669   0.62960   1.000
    H33     H    0.50298   0.12635   0.36040   1.000
    H34     H    0.45692   0.98053   0.44528   1.000
    H35     H    0.19292   0.96341   0.76228   1.000
    H36     H    0.17195   0.04238   0.64988   1.000
    H37     H    0.71298   0.39415   0.76714   1.000
    H38     H    0.58530   0.34691   0.75955   1.000
    H39     H    0.76037   0.45645   0.45810   1.000
    H40     H    0.85991   0.75948   0.43836   1.000
    H41     H    0.74085   0.70330   0.42466   1.000
    H42     H    0.72730   0.25651   0.72236   1.000
    H43     H    0.64957   0.28259   0.64526   1.000
    H44     H    0.96426   0.58005   0.31886   1.000
    H45     H    0.98265   0.62934   0.41350   1.000
    H46     H    0.86356   0.36007   0.51309   1.000
    H47     H    0.90264   0.44488   0.57390   1.000
    H48     H    0.95437   0.76218   0.27438   1.000
    H49     H    0.82097   0.64991   0.30821   1.000
    H50     H    0.47890   0.76713   0.83880   1.000
    H51     H    0.34349   0.75914   0.89384   1.000
    H52     H    0.21855   0.45778   0.08565   1.000
    H53     H    0.29935   0.43827   0.80231   1.000
    H54     H    0.16653   0.42455   0.87167   1.000
    H55     H    0.44880   0.72228   0.02118   1.000
    H56     H    0.29418   0.64497   0.07238   1.000
    H57     H    0.28366   0.31860   0.10146   1.000
    H58     H    0.39654   0.41323   0.95760   1.000
    H59     H    0.37658   0.51297   0.12690   1.000
    H60     H    0.47629   0.57385   0.98135   1.000
    H61     H    0.22944   0.27399   0.96395   1.000
    H62     H    0.12994   0.30824   0.04190   1.000
    H63     H    0.68268   0.16148   0.60559   1.000
    H64     H    0.76277   0.10610   0.65306   1.000
    H65     H    0.69592   0.91428   0.54343   1.000
    H66     H    0.89940   0.19767   0.24066   1.000
    H67     H    0.96197   0.12716   0.29694   1.000
    H68     H    0.53052   0.97930   0.74315   1.000
    H69     H    0.63369   0.92763   0.71720   1.000
    H70     H    0.61538   0.89927   0.41969   1.000
    H71     H    0.64667   0.04335   0.37040   1.000
    H72     H    0.49701   0.87369   0.63956   1.000
    H73     H    0.54307   0.01951   0.55472   1.000
    H74     H    0.80707   0.03662   0.23772   1.000
    H75     H    0.82805   0.95766   0.35013   1.000
    H76     H    0.28701   0.60588   0.23287   1.000
    H77     H    0.41469   0.65312   0.24045   1.000
    H78     H    0.23962   0.54358   0.54191   1.000
    H79     H    0.14009   0.24056   0.56164   1.000
    H80     H    0.25914   0.29673   0.57534   1.000
    H81     H    0.27269   0.74353   0.27764   1.000
    H82     H    0.35043   0.71744   0.35474   1.000
    H83     H    0.03574   0.41998   0.68114   1.000
    H84     H    0.01734   0.37069   0.58650   1.000
    H85     H    0.13644   0.63996   0.48691   1.000
    H86     H    0.09735   0.55515   0.42610   1.000
    H87     H    0.04562   0.23785   0.72562   1.000
    H88     H    0.17903   0.35013   0.69179   1.000
    H89     H    0.52109   0.23290   0.16115   1.000
    H90     H    0.65650   0.24089   0.10616   1.000
    H91     H    0.78144   0.54225   0.91436   1.000
    H92     H    0.70065   0.56176   0.19770   1.000
    H93     H    0.83346   0.57549   0.12833   1.000
    H94     H    0.55119   0.27775   0.97882   1.000
    H95     H    0.70581   0.35506   0.92763   1.000
    H96     H    0.71633   0.68144   0.89854   1.000
    H97     H    0.60345   0.58680   0.04240   1.000
    H98     H    0.62342   0.48706   0.87302   1.000
    H99     H    0.52370   0.42618   0.01865   1.000
    H100    H    0.77055   0.72605   0.03606   1.000
    H101    H    0.87006   0.69180   0.95804   1.000
    C102    C    0.39429   0.01288   0.32288   1.000
    C103    C    0.43000   0.04027   0.40440   1.000
    C104    C    0.32513   0.01851   0.59628   1.000
    C105    C    0.19875   0.97834   0.68036   1.000
    C106    C    0.71789   0.32265   0.66435   1.000
    C107    C    0.83472   0.40411   0.55523   1.000
    C108    C    0.92099   0.59607   0.38519   1.000
    C109    C    0.87849   0.68031   0.34154   1.000
    C110    C    0.38155   0.66417   0.01316   1.000
    C111    C    0.38973   0.55510   0.04081   1.000
    C112    C    0.30661   0.38494   0.01905   1.000
    C113    C    0.22070   0.34131   0.97842   1.000
    C114    C    0.60570   0.98715   0.67712   1.000
    C115    C    0.57000   0.95976   0.59558   1.000
    C116    C    0.67487   0.98153   0.40372   1.000
    C117    C    0.80124   0.02170   0.31964   1.000
    C118    C    0.28210   0.67738   0.33565   1.000
    C119    C    0.16528   0.59592   0.44477   1.000
    C120    C    0.07901   0.40396   0.61482   1.000
    C121    C    0.12150   0.31972   0.65840   1.000
    C122    C    0.61844   0.33586   0.98680   1.000
    C123    C    0.61027   0.44494   0.95919   1.000
    C124    C    0.69339   0.61509   0.98095   1.000
    C125    C    0.77930   0.65872   0.02158   1.000
    N126    N    0.29148   0.89918   0.38480   1.000
    N127    N    0.32434   0.02362   0.49276   1.000
    N128    N    0.11711   0.87347   0.69129   1.000
    N129    N    0.67729   0.38468   0.71629   1.000
    N130    N    0.81707   0.49258   0.48376   1.000
    N131    N    0.80825   0.69141   0.43555   1.000
    N132    N    0.39257   0.71607   0.89927   1.000
    N133    N    0.30087   0.48353   0.02387   1.000
    N134    N    0.24459   0.43539   0.87309   1.000
    N135    N    0.70851   0.10086   0.61520   1.000
    N136    N    0.67566   0.97642   0.50724   1.000
    N137    N    0.88289   0.12657   0.30871   1.000
    N138    N    0.32271   0.61536   0.28371   1.000
    N139    N    0.18293   0.50745   0.51624   1.000
    N140    N    0.19174   0.30863   0.56445   1.000
    N141    N    0.60742   0.28397   0.10073   1.000
    N142    N    0.69913   0.51650   0.97613   1.000
    N143    N    0.75540   0.56465   0.12691   1.000
    O144    O    0.11158   0.95133   0.48089   1.000
    O145    O    0.09071   0.07254   0.32533   1.000
    O146    O    0.92419   0.87100   0.47038   1.000
    O147    O    0.11391   0.90282   0.32296   1.000
    O148    O    0.12174   0.28672   0.29317   1.000
    O149    O    0.08741   0.45167   0.22057   1.000
    O150    O    0.12128   0.40591   0.39082   1.000
    O151    O    0.93101   0.28018   0.41084   1.000
    O152    O    0.59315   0.48132   0.56790   1.000
    O153    O    0.41721   0.32554   0.60214   1.000
    O154    O    0.39513   0.47038   0.65879   1.000
    O155    O    0.43821   0.32302   0.77418   1.000
    O156    O    0.41485   0.29317   0.42026   1.000
    O157    O    0.30782   0.22016   0.32836   1.000
    O158    O    0.51171   0.39025   0.20340   1.000
    O159    O    0.34158   0.41080   0.30877   1.000
    O160    O    0.16083   0.56781   0.95062   1.000
    O161    O    0.01909   0.60233   0.07199   1.000
    O162    O    0.05347   0.65874   0.87061   1.000
    O163    O    0.21164   0.77419   0.90246   1.000
    O164    O    0.83495   0.42062   0.28633   1.000
    O165    O    0.63638   0.32839   0.45142   1.000
    O166    O    0.71596   0.20374   0.40593   1.000
    O167    O    0.65044   0.30894   0.28045   1.000
    O168    O    0.88841   0.04870   0.51912   1.000
    O169    O    0.90929   0.92749   0.67467   1.000
    O170    O    0.07581   0.12904   0.52962   1.000
    O171    O    0.88608   0.09721   0.67704   1.000
    O172    O    0.87825   0.71331   0.70683   1.000
    O173    O    0.91258   0.54836   0.77944   1.000
    O174    O    0.87871   0.59412   0.60918   1.000
    O175    O    0.06898   0.71986   0.58916   1.000
    O176    O    0.40684   0.51871   0.43210   1.000
    O177    O    0.58279   0.67449   0.39787   1.000
    O178    O    0.60486   0.52965   0.34121   1.000
    O179    O    0.56179   0.67701   0.22583   1.000
    O180    O    0.58514   0.70686   0.57970   1.000
    O181    O    0.69217   0.77987   0.67164   1.000
    O182    O    0.48828   0.60978   0.79657   1.000
    O183    O    0.65841   0.58923   0.69120   1.000
    O184    O    0.83916   0.43222   0.04938   1.000
    O185    O    0.98090   0.39771   0.92801   1.000
    O186    O    0.94652   0.34129   0.12940   1.000
    O187    O    0.78836   0.22584   0.09754   1.000
    O188    O    0.16505   0.57941   0.71367   1.000
    O189    O    0.36361   0.67164   0.54858   1.000
    O190    O    0.28404   0.79630   0.59408   1.000
    O191    O    0.34956   0.69109   0.71956   1.000
loop_
    _geom_bond_atom_site_label_1
    _geom_bond_atom_site_label_2
    _geom_bond_distance
    _geom_bond_site_symmetry_2
    _ccdc_geom_bond_type
    C110   H55       1.09935      .   S
    C110   C111      1.53196      .   S
    C110   H56       1.09992      .   S
    C110   N132      1.48198  1_554   S
    H99    C123      1.09523  1_554   S
    C112   N133      1.47502      .   S
    C112   H57       1.09912      .   S
    C112   H58       1.09622  1_554   S
    C112   C113      1.52787  1_554   S
    C125   H100      1.09757      .   S
    C125   N143      1.49048      .   S
    C125   H101      1.09806  1_554   S
    C125   C124      1.52787  1_554   S
    N133   C111      1.47309      .   S
    N133   H52       1.03307      .   S
    C111   H59       1.09892      .   S
    C111   H60       1.09523  1_554   S
    H62    C113      1.09777  1_554   S
    H97    C124      1.09621  1_554   S
    O184   P22       1.56237      .   S
    O184   Ga11      1.98843      .   S
    P22    O187      1.49879      .   S
    P22    O186      1.60576      .   S
    P22    O185      1.59447  1_554   S
    O161   Ga4       1.86833  1_455   S
    O161   P16       1.59447  1_554   S
    N141   H90       1.04658      .   S
    N141   H89       1.02270      .   S
    N141   C122      1.48250  1_554   S
    N143   H93       1.03035      .   S
    N143   H92       1.03761      .   S
    O186   Ga4       1.87920      .   S
    Ga11   O158      2.05485      .   S
    Ga11   O167      1.94130      .   S
    Ga4    O164      1.88727      .   S
    O158   P15       1.52568      .   S
    O149   P13       1.58808      .   S
    O179   P20       1.49869      .   S
    H76    N138      1.02272      .   S
    H74    C117      1.09744      .   S
    H77    N138      1.04624      .   S
    H66    N137      1.03743      .   S
    H29    C102      1.09936      .   S
    H48    C109      1.09751      .   S
    H81    C118      1.09944      .   S
    O167   P17       1.54214      .   S
    H30    C102      1.09991      .   S
    N138   C118      1.48213      .   S
    O164   P17       1.56837      .   S
    O148   P13       1.56795      .   S
    O148   Ga0       1.88771      .   S
    H67    N137      1.03072      .   S
    H49    C109      1.09818      .   S
    N137   C117      1.49057      .   S
    O159   P15       1.54219      .   S
    O159   Ga9       1.94214      .   S
    P15    O157      1.58867      .   S
    P15    O156      1.56853      .   S
    H44    C108      1.09906      .   S
    C117   H75       1.09780  1_545   S
    C117   C116      1.52830  1_545   S
    C102   N126      1.48172  1_545   S
    C102   C103      1.53185      .   S
    O147   P12       1.49860      .   S
    O145   Ga0       1.86960      .   S
    O145   P12       1.59498  1_545   S
    P13    O150      1.52547      .   S
    P13    O151      1.54194  1_455   S
    C118   H82       1.09993      .   S
    C118   C119      1.53192      .   S
    O178   P20       1.60575      .   S
    O178   Ga2       1.87930      .   S
    C109   C108      1.52830      .   S
    C109   N131      1.49045      .   S
    P20    O177      1.59512      .   S
    P20    O176      1.56195      .   S
    H25    N126      1.04633      .   S
    P17    O166      1.52527      .   S
    P17    O165      1.58818      .   S
    H33    C103      1.10000      .   S
    H71    C116      1.09595  1_545   S
    Ga0    O170      1.87968      .   S
    N126   H24       1.02272      .   S
    C108   H45       1.09624      .   S
    C108   N130      1.47495      .   S
    O150   Ga9       2.05002      .   S
    P12    O146      1.60512  1_455   S
    P12    O144      1.56267      .   S
    O177   Ga8       1.86868      .   S
    C116   H70       1.09906      .   S
    C116   N136      1.47508      .   S
    C103   H34       1.09515  1_545   S
    C103   N127      1.47322      .   S
    O166   Ga7       2.05255      .   S
    O151   Ga7       1.94147      .   S
    Ga9    O176      1.98837      .   S
    O156   Ga2       1.88754      .   S
    H41    N131      1.03050      .   S
    H86    C119      1.09527      .   S
    N131   H40       1.03731      .   S
    C119   H85       1.10004      .   S
    C119   N139      1.47314      .   S
    Ga2    O153      1.86879      .   S
    Ga7    O168      1.98824      .   S
    H26    N127      1.03317      .   S
    H39    N130      1.03309      .   S
    O146   Ga6       1.87942      .   S
    O144   Ga1       1.98818      .   S
    N130   C107      1.47314      .   S
    N127   C104      1.47508      .   S
    N136   H65       1.03317      .   S
    N136   C115      1.47308      .   S
    H46    C107      1.10004      .   S
    N139   H78       1.03320      .   S
    N139   C120      1.47499      .   S
    O168   P18       1.56253      .   S
    O170   P18       1.60512  1_455   S
    Ga1    O175      1.94147      .   S
    Ga1    O190      2.05260      .   S
    Ga8    O180      1.88712      .   S
    Ga8    O154      1.87930      .   S
    O189   P23       1.58819      .   S
    H73    C115      1.09503  1_545   S
    C107   H47       1.09527      .   S
    C107   C106      1.53192      .   S
    H79    N140      1.03731      .   S
    N140   H80       1.03051      .   S
    N140   C121      1.48980      .   S
    O152   Ga3       1.98837      .   S
    O152   P14       1.56195      .   S
    O180   P21       1.56918      .   S
    H31    C104      1.09901      .   S
    H84    C120      1.09635      .   S
    Ga3    O174      2.05002      .   S
    Ga3    O183      1.94183      .   S
    O175   P19       1.54187  1_455   S
    O190   P23       1.52525      .   S
    C115   H72       1.10003      .   S
    C115   C114      1.53212      .   S
    C104   H32       1.09596  1_545   S
    C104   C105      1.52830  1_545   S
    O153   P14       1.59500      .   S
    P18    O169      1.59498  1_545   S
    P18    O171      1.49860      .   S
    H63    N135      1.02270      .   S
    O174   P19       1.52496      .   S
    C120   C121      1.52805      .   S
    C120   H83       1.09895      .   S
    N135   H64       1.04633      .   S
    N135   C114      1.48173  1_545   S
    Ga6    O169      1.86983      .   S
    Ga6    O172      1.88782      .   S
    H43    C106      1.09992      .   S
    P23    O188      1.56837      .   S
    P23    O191      1.54227      .   S
    H36    C105      1.09777  1_545   S
    P14    O154      1.60575      .   S
    P14    O155      1.49881      .   S
    C121   H88       1.09888      .   S
    C121   H87       1.09769      .   S
    C106   N129      1.48212      .   S
    C106   H42       1.09943      .   S
    P19    O172      1.56820      .   S
    P19    O173      1.58855      .   S
    O181   P21       1.58861      .   S
    C114   H69       1.09955      .   S
    C114   H68       1.09943      .   S
    C105   N128      1.49057      .   S
    C105   H35       1.09744      .   S
    P21    O183      1.54222      .   S
    P21    O182      1.52538      .   S
    N128   H28       1.03072      .   S
    N128   H27       1.03712      .   S
    O188   Ga10      1.88727      .   S
    N129   H38       1.04625      .   S
    N129   H37       1.02285      .   S
    O191   Ga5       1.94119      .   S
    O182   Ga5       2.05489      .   S
    H53    N134      1.03749      .   S
    Ga10   O162      1.87929      .   S
    Ga10   O185      1.86833  1_455   S
    H50    N132      1.02287      .   S
    Ga5    O160      1.98843      .   S
    O162   P16       1.60564      .   S
    H54    N134      1.03036      .   S
    H98    C123      1.09995      .   S
    N134   C113      1.49047      .   S
    H51    N132      1.04658      .   S
    H96    C124      1.09912      .   S
    O163   P16       1.49879      .   S
    H91    N142      1.03301      .   S
    H95    C122      1.09967      .   S
    P16    O160      1.56237      .   S
    C123   N142      1.47309      .   S
    C123   C122      1.53201      .   S
    H61    C113      1.09750      .   S
    N142   C124      1.47502      .   S
    H94    C122      1.09898      .   S
    O149   Ga4       1.89313  1_455   S
    O157   Ga0       1.89324      .   S
    O165   Ga2       1.89354      .   S
    O173   Ga10      1.89304  1_655   S
    O181   Ga6       1.89320      .   S
    O189   Ga8       1.89352      .   S
