# CIF file generated by openbabel 2.4.90, see http://openbabel.sf.net
data_I
_chemical_name_common ''
_cell_length_a 13.79
_cell_length_b 14.367
_cell_length_c 21.456
_cell_angle_alpha 90.118
_cell_angle_beta 90.021
_cell_angle_gamma 89.909
_space_group_name_H-M_alt 'P 1'
_space_group_name_Hall 'P 1'
loop_
    _symmetry_equiv_pos_as_xyz
    x,y,z
loop_
    _atom_site_label
    _atom_site_type_symbol
    _atom_site_fract_x
    _atom_site_fract_y
    _atom_site_fract_z
    _atom_site_occupancy
    N0      N    0.51288   0.31657   0.72438   1.000
    N1      N    0.02880   0.41041   0.43965   1.000
    N2      N    0.98313   0.68307   0.22457   1.000
    N3      N    0.47118   0.91047   0.43967   1.000
    N4      N    0.51303   0.18306   0.22453   1.000
    N5      N    0.97121   0.58960   0.56029   1.000
    N6      N    0.02872   0.08927   0.93931   1.000
    N7      N    0.48712   0.68345   0.27559   1.000
    N8      N    0.97128   0.91074   0.06065   1.000
    N9      N    0.48697   0.81695   0.77544   1.000
    N10     N    0.01282   0.18324   0.27553   1.000
    N11     N    0.52875   0.41058   0.06060   1.000
    N12     N    0.01308   0.31695   0.77537   1.000
    N13     N    0.52883   0.08955   0.56031   1.000
    N14     N    0.98335   0.81677   0.72445   1.000
    N15     N    0.47125   0.58943   0.93937   1.000
    Zr16    Zr   0.52924   0.40218   0.44245   1.000
    O17     O    0.52472   0.33919   0.37734   1.000
    O18     O    0.52722   0.37498   0.52414   1.000
    O19     O    0.51811   0.48912   0.39608   1.000
    O20     O    0.67390   0.40565   0.44114   1.000
    O21     O    0.38438   0.40404   0.44247   1.000
    Zr22    Zr   0.47085   0.90229   0.05843   1.000
    O23     O    0.48198   0.98918   0.10453   1.000
    O24     O    0.47283   0.87519   0.97639   1.000
    O25     O    0.32619   0.90579   0.05954   1.000
    O26     O    0.47538   0.83959   0.12342   1.000
    O27     O    0.61570   0.90423   0.05824   1.000
    Zr28    Zr   0.47076   0.59784   0.55753   1.000
    O29     O    0.61562   0.59597   0.55750   1.000
    O30     O    0.32611   0.59437   0.55882   1.000
    O31     O    0.47278   0.62504   0.47584   1.000
    O32     O    0.48190   0.51089   0.60389   1.000
    O33     O    0.47528   0.66083   0.62263   1.000
    Zr34    Zr   0.52916   0.09772   0.94156   1.000
    O35     O    0.52717   0.12483   0.02359   1.000
    O36     O    0.67381   0.09423   0.94044   1.000
    O37     O    0.38430   0.09579   0.94174   1.000
    O38     O    0.52462   0.16043   0.87657   1.000
    O39     O    0.51802   0.01084   0.89545   1.000
    Zr40    Zr   0.97083   0.59778   0.94155   1.000
    O41     O    0.11568   0.59585   0.94177   1.000
    O42     O    0.82618   0.59435   0.94044   1.000
    O43     O    0.97442   0.66057   0.87659   1.000
    O44     O    0.97186   0.62487   0.02360   1.000
    O45     O    0.98200   0.51090   0.89541   1.000
    Zr46    Zr   0.02917   0.40223   0.05843   1.000
    O47     O    0.17383   0.40567   0.05954   1.000
    O48     O    0.01705   0.48912   0.10456   1.000
    O49     O    0.88432   0.40416   0.05821   1.000
    O50     O    0.02719   0.37515   0.97637   1.000
    O51     O    0.02462   0.33945   0.12339   1.000
    Zr52    Zr   0.97077   0.90221   0.44246   1.000
    O53     O    0.97186   0.87506   0.52417   1.000
    O54     O    0.97433   0.83921   0.37736   1.000
    O55     O    0.11562   0.90406   0.44247   1.000
    O56     O    0.82610   0.90570   0.44116   1.000
    O57     O    0.98187   0.98909   0.39607   1.000
    Zr58    Zr   0.02924   0.09781   0.55752   1.000
    O59     O    0.02718   0.12496   0.47581   1.000
    O60     O    0.17391   0.09432   0.55882   1.000
    O61     O    0.88438   0.09596   0.55751   1.000
    O62     O    0.02473   0.16081   0.62261   1.000
    O63     O    0.01718   0.01093   0.60391   1.000
loop_
    _geom_bond_atom_site_label_1
    _geom_bond_atom_site_label_2
    _geom_bond_distance
    _geom_bond_site_symmetry_2
    _ccdc_geom_bond_type
    Zr16   O17       1.66425      .   S
    N4     O17       3.97211      .   S
    Zr16   O18       1.79682      .   S
    N0     O18       4.38385      .   S
    Zr16   O19       1.60562      .   S
    N7     O19       3.83217      .   S
    Zr16   O20       1.99568      .   S
    N1     O20       4.89475  1_455   S
    Zr16   O21       1.99780      .   S
    N1     O21       4.90458      .   S
    Zr22   O23       1.59862      .   S
    N4     O23       3.81373  1_545   S
    Zr22   O24       1.80223  1_554   S
    N9     O24       4.39463      .   S
    Zr22   O25       1.99544      .   S
    N8     O25       4.89474  1_655   S
    Zr22   O26       1.66280      .   S
    N7     O26       3.96827      .   S
    Zr22   O27       1.99780      .   S
    N8     O27       4.90472      .   S
    Zr28   O29       1.99780      .   S
    N5     O29       4.90458      .   S
    Zr28   O30       1.99567      .   S
    N5     O30       4.89474  1_655   S
    Zr28   O31       1.79682      .   S
    N7     O31       4.38398      .   S
    Zr28   O32       1.60548      .   S
    N0     O32       3.83222      .   S
    Zr28   O33       1.66401      .   S
    N9     O33       3.97211      .   S
    Zr34   O35       1.80208  1_556   S
    N4     O35       4.39429      .   S
    Zr34   O36       1.99544      .   S
    N6     O36       4.89474  1_455   S
    Zr34   O37       1.99781      .   S
    N6     O37       4.90473      .   S
    Zr34   O38       1.66290      .   S
    N0     O38       3.96847      .   S
    Zr34   O39       1.59872      .   S
    N9     O39       3.81398  1_565   S
    Zr40   O41       1.99758  1_655   S
    N15    O41       4.90435      .   S
    Zr40   O42       1.99561      .   S
    N15    O42       4.89511      .   S
    Zr40   O43       1.66256      .   S
    N14    O43       3.96720      .   S
    Zr40   O44       1.80222  1_556   S
    N2     O44       4.39334      .   S
    Zr40   O45       1.59889      .   S
    N12    O45       3.81424  1_455   S
    Zr46   O47       1.99561      .   S
    N11    O47       4.89510      .   S
    Zr46   O48       1.60006      .   S
    N2     O48       3.81839  1_655   S
    Zr46   O49       1.99759  1_455   S
    N11    O49       4.90435      .   S
    Zr46   O50       1.80258  1_554   S
    N12    O50       4.39553      .   S
    Zr46   O51       1.66306      .   S
    N10    O51       3.96868      .   S
    Zr52   O53       1.79682      .   S
    N14    O53       4.38254      .   S
    Zr52   O54       1.66345      .   S
    N2     O54       3.97042      .   S
    Zr52   O55       1.99774  1_655   S
    N3     O55       4.90451      .   S
    Zr52   O56       1.99573      .   S
    N3     O56       4.89485      .   S
    Zr52   O57       1.60561      .   S
    N10    O57       3.83228  1_445   S
    Zr58   O59       1.79693      .   S
    N10    O59       4.38412      .   S
    Zr58   O60       1.99572      .   S
    N13    O60       4.89485      .   S
    Zr58   O61       1.99774  1_455   S
    N13    O61       4.90451      .   S
    Zr58   O62       1.66370      .   S
    N12    O62       3.97126      .   S
    Zr58   O63       1.60695      .   S
    N14    O63       3.83698  1_665   S
