# CIF file generated by openbabel 2.4.90, see http://openbabel.sf.net
data_I
_chemical_name_common 'VESTA_phase_1'
_cell_length_a 18.942
_cell_length_b 18.96
_cell_length_c 18.965
_cell_angle_alpha 59.983
_cell_angle_beta 60.023
_cell_angle_gamma 60.017
_space_group_name_H-M_alt 'P 1'
_space_group_name_Hall 'P 1'
loop_
    _symmetry_equiv_pos_as_xyz
    x,y,z
loop_
    _atom_site_label
    _atom_site_type_symbol
    _atom_site_fract_x
    _atom_site_fract_y
    _atom_site_fract_z
    _atom_site_occupancy
    Zn0     Zn   0.50015   0.06758   0.49990   1.000
    Zn1     Zn   0.06762   0.50020   0.93240   1.000
    Zn2     Zn   0.49976   0.93252   0.49999   1.000
    Zn3     Zn   0.93237   0.50002   0.06750   1.000
    Zn4     Zn   0.49990   0.49989   0.93245   1.000
    Zn5     Zn   0.06759   0.93236   0.49993   1.000
    Zn6     Zn   0.50023   0.50000   0.06739   1.000
    Zn7     Zn   0.93239   0.06760   0.49986   1.000
    Zn8     Zn   0.49990   0.93234   0.06750   1.000
    Zn9     Zn   0.06760   0.50006   0.50007   1.000
    Zn10    Zn   0.49999   0.06762   0.93239   1.000
    Zn11    Zn   0.93236   0.49986   0.50000   1.000
    H12     H    0.76662   0.99349   0.47287   1.000
    H13     H    0.99380   0.76662   0.76688   1.000
    H14     H    0.47362   0.76671   0.76612   1.000
    H15     H    0.76692   0.47330   0.99330   1.000
    H16     H    0.76650   0.47314   0.76659   1.000
    H17     H    0.99390   0.76656   0.47289   1.000
    H18     H    0.47356   0.76621   0.99340   1.000
    H19     H    0.76698   0.99401   0.76649   1.000
    H20     H    0.76662   0.76714   0.99380   1.000
    H21     H    0.99375   0.47376   0.76603   1.000
    H22     H    0.47392   0.99345   0.76648   1.000
    H23     H    0.76682   0.76646   0.47259   1.000
    H24     H    0.00599   0.23368   0.52707   1.000
    H25     H    0.23335   0.00606   0.23292   1.000
    H26     H    0.23328   0.52680   0.23379   1.000
    H27     H    0.52643   0.23323   0.00648   1.000
    H28     H    0.52637   0.23370   0.23320   1.000
    H29     H    0.23301   0.00650   0.52702   1.000
    H30     H    0.23348   0.52671   0.00673   1.000
    H31     H    0.00616   0.23308   0.23342   1.000
    H32     H    0.23293   0.23340   0.00608   1.000
    H33     H    0.52602   0.00649   0.23391   1.000
    H34     H    0.00633   0.52625   0.23367   1.000
    H35     H    0.23333   0.23322   0.52739   1.000
    C36     C    0.66489   0.92912   0.47614   1.000
    C37     C    0.75748   0.88516   0.47159   1.000
    C38     C    0.92925   0.66504   0.92963   1.000
    C39     C    0.88539   0.75763   0.88556   1.000
    C40     C    0.47715   0.92949   0.66455   1.000
    C41     C    0.47269   0.88529   0.75704   1.000
    C42     C    0.92968   0.47705   0.92866   1.000
    C43     C    0.88555   0.47243   0.88483   1.000
    C44     C    0.66492   0.47647   0.92937   1.000
    C45     C    0.75745   0.47212   0.88515   1.000
    C46     C    0.92935   0.92917   0.47654   1.000
    C47     C    0.88543   0.88522   0.47180   1.000
    C48     C    0.47694   0.66467   0.92886   1.000
    C49     C    0.47253   0.75718   0.88491   1.000
    C50     C    0.92960   0.92921   0.66476   1.000
    C51     C    0.88559   0.88547   0.75740   1.000
    C52     C    0.66494   0.92990   0.92911   1.000
    C53     C    0.75754   0.88580   0.88531   1.000
    C54     C    0.92922   0.47687   0.66460   1.000
    C55     C    0.88529   0.47235   0.75708   1.000
    C56     C    0.47702   0.92883   0.92939   1.000
    C57     C    0.47263   0.88499   0.88515   1.000
    C58     C    0.92966   0.66476   0.47622   1.000
    C59     C    0.88556   0.75728   0.47162   1.000
    C60     C    0.07053   0.33517   0.52381   1.000
    C61     C    0.11449   0.24267   0.52836   1.000
    C62     C    0.33496   0.07070   0.07020   1.000
    C63     C    0.24238   0.11456   0.11420   1.000
    C64     C    0.07051   0.52306   0.33545   1.000
    C65     C    0.11461   0.52761   0.24297   1.000
    C66     C    0.52290   0.07050   0.07110   1.000
    C67     C    0.52732   0.11465   0.11504   1.000
    C68     C    0.52309   0.33524   0.07039   1.000
    C69     C    0.52746   0.24274   0.11467   1.000
    C70     C    0.07019   0.07120   0.52300   1.000
    C71     C    0.11430   0.11493   0.52810   1.000
    C72     C    0.33520   0.52344   0.07113   1.000
    C73     C    0.24266   0.52784   0.11510   1.000
    C74     C    0.07082   0.07036   0.33506   1.000
    C75     C    0.11459   0.11438   0.24245   1.000
    C76     C    0.07024   0.33514   0.07080   1.000
    C77     C    0.11432   0.24251   0.11458   1.000
    C78     C    0.52281   0.07103   0.33534   1.000
    C79     C    0.52728   0.11494   0.24285   1.000
    C80     C    0.07080   0.52309   0.07090   1.000
    C81     C    0.11474   0.52761   0.11499   1.000
    C82     C    0.33501   0.07050   0.52378   1.000
    C83     C    0.24242   0.11464   0.52834   1.000
    C84     C    0.80019   0.92769   0.47165   1.000
    C85     C    0.92800   0.80026   0.80032   1.000
    C86     C    0.47252   0.80008   0.79969   1.000
    C87     C    0.80034   0.47218   0.92749   1.000
    C88     C    0.80008   0.47209   0.79997   1.000
    C89     C    0.92804   0.80005   0.47166   1.000
    C90     C    0.47247   0.79980   0.92755   1.000
    C91     C    0.80041   0.92816   0.80008   1.000
    C92     C    0.80020   0.80056   0.92797   1.000
    C93     C    0.92792   0.47243   0.79965   1.000
    C94     C    0.47266   0.92764   0.79990   1.000
    C95     C    0.80031   0.79998   0.47140   1.000
    C96     C    0.07185   0.20008   0.52829   1.000
    C97     C    0.19976   0.07192   0.19952   1.000
    C98     C    0.19983   0.52787   0.20027   1.000
    C99     C    0.52751   0.19984   0.07234   1.000
    C100    C    0.52746   0.20013   0.19990   1.000
    C101    C    0.19954   0.07229   0.52826   1.000
    C102    C    0.19995   0.52783   0.07254   1.000
    C103    C    0.07195   0.19962   0.19980   1.000
    C104    C    0.19950   0.19981   0.07191   1.000
    C105    C    0.52730   0.07230   0.20020   1.000
    C106    C    0.07216   0.52757   0.20019   1.000
    C107    C    0.19974   0.19981   0.52848   1.000
    O108    O    0.62867   0.00603   0.47866   1.000
    O109    O    0.00617   0.62872   0.88651   1.000
    O110    O    0.47944   0.88651   0.62827   1.000
    O111    O    0.88657   0.47953   0.00555   1.000
    O112    O    0.62846   0.47892   0.88640   1.000
    O113    O    0.00629   0.88599   0.47918   1.000
    O114    O    0.47956   0.62835   0.00574   1.000
    O115    O    0.88647   0.00612   0.62836   1.000
    O116    O    0.62853   0.88677   0.00597   1.000
    O117    O    0.00616   0.47950   0.62834   1.000
    O118    O    0.47958   0.00576   0.88636   1.000
    O119    O    0.88655   0.62838   0.47877   1.000
    O120    O    0.99358   0.37142   0.52121   1.000
    O121    O    0.37129   0.99371   0.11326   1.000
    O122    O    0.11359   0.52067   0.37170   1.000
    O123    O    0.52045   0.11362   0.99419   1.000
    O124    O    0.52076   0.37161   0.11331   1.000
    O125    O    0.11331   0.99433   0.52065   1.000
    O126    O    0.37145   0.52085   0.99428   1.000
    O127    O    0.99394   0.11352   0.37141   1.000
    O128    O    0.11338   0.37161   0.99398   1.000
    O129    O    0.52015   0.99414   0.37171   1.000
    O130    O    0.99386   0.52048   0.11398   1.000
    O131    O    0.37151   0.11352   0.52119   1.000
    O132    O    0.37114   0.99362   0.52122   1.000
    O133    O    0.99335   0.37134   0.11400   1.000
    O134    O    0.52047   0.11415   0.37149   1.000
    O135    O    0.11401   0.52065   0.99400   1.000
    O136    O    0.37153   0.52098   0.11421   1.000
    O137    O    0.99330   0.11452   0.52057   1.000
    O138    O    0.52050   0.37140   0.99351   1.000
    O139    O    0.11409   0.99347   0.37132   1.000
    O140    O    0.37124   0.11399   0.99337   1.000
    O141    O    0.99361   0.52036   0.37165   1.000
    O142    O    0.52024   0.99362   0.11436   1.000
    O143    O    0.11373   0.37148   0.52123   1.000
    O144    O    0.00657   0.62857   0.47890   1.000
    O145    O    0.62874   0.00683   0.88587   1.000
    O146    O    0.88605   0.47931   0.62839   1.000
    O147    O    0.47953   0.88552   0.00630   1.000
    O148    O    0.47930   0.62845   0.88579   1.000
    O149    O    0.88612   0.00603   0.47920   1.000
    O150    O    0.62880   0.47904   0.00622   1.000
    O151    O    0.00644   0.88590   0.62852   1.000
    O152    O    0.88599   0.62872   0.00645   1.000
    O153    O    0.47984   0.00636   0.62831   1.000
    O154    O    0.00659   0.47972   0.88544   1.000
    O155    O    0.62849   0.88600   0.47876   1.000
loop_
    _geom_bond_atom_site_label_1
    _geom_bond_atom_site_label_2
    _geom_bond_distance
    _geom_bond_site_symmetry_2
    _ccdc_geom_bond_type
    O111   Zn3       2.02390      .   S
    O111   C42       1.27890  1_554   S
    O114   Zn6       2.02516      .   S
    O114   C48       1.27906  1_554   S
    O116   Zn8       2.02688      .   S
    O116   C52       1.27890  1_554   S
    H32    C104      1.08754      .   S
    O150   Zn6       2.02628      .   S
    O150   C44       1.27904  1_554   S
    O147   Zn8       2.02584      .   S
    O147   C56       1.27906  1_554   S
    O152   Zn3       2.02825      .   S
    O152   C38       1.27885  1_554   S
    H27    C99       1.08754      .   S
    H30    C102      1.08738      .   S
    Zn6    O124      2.02639      .   S
    Zn6    O136      2.02740      .   S
    Zn8    O121      2.02638      .   S
    Zn8    O142      2.02757      .   S
    Zn3    O130      2.02572      .   S
    Zn3    O133      2.02812      .   S
    C62    O121      1.27905  1_545   S
    C62    C63       1.49586      .   S
    C62    O140      1.27890  1_554   S
    C68    O124      1.27874      .   S
    C68    C69       1.49615      .   S
    C68    O138      1.27909  1_554   S
    C76    O133      1.27848  1_455   S
    C76    C77       1.49635      .   S
    C76    O128      1.27894  1_554   S
    C80    O130      1.27896  1_455   S
    C80    C81       1.49583      .   S
    C80    O135      1.27898  1_554   S
    C66    O142      1.27912  1_545   S
    C66    C67       1.49664      .   S
    C66    O123      1.27853  1_554   S
    C72    O136      1.27859      .   S
    C72    C73       1.49595      .   S
    C72    O126      1.27907  1_554   S
    C104   C63       1.39909      .   S
    C104   C77       1.39959      .   S
    C99    C69       1.39938      .   S
    C99    C67       1.39955      .   S
    C102   C81       1.39936      .   S
    C102   C73       1.39960      .   S
    C63    C97       1.40058      .   S
    C77    C103      1.39951      .   S
    C69    C100      1.39958      .   S
    C81    C106      1.39946      .   S
    C67    C105      1.39830      .   S
    C73    C98       1.39932      .   S
    C97    H25       1.08750      .   S
    C97    C75       1.39949      .   S
    C103   H31       1.08747      .   S
    C103   C75       1.39963      .   S
    C100   H28       1.08638      .   S
    C100   C79       1.39955      .   S
    C106   H34       1.08749      .   S
    C106   C65       1.39941      .   S
    C105   H33       1.08751      .   S
    C105   C79       1.40075      .   S
    C98    H26       1.08761      .   S
    C98    C65       1.39954      .   S
    C75    C74       1.49619      .   S
    C79    C78       1.49600      .   S
    C65    C64       1.49595      .   S
    C74    O139      1.27896  1_545   S
    C74    O127      1.27891  1_455   S
    C78    O134      1.27855      .   S
    C78    O129      1.27915  1_545   S
    C64    O141      1.27898  1_455   S
    C64    O122      1.27788      .   S
    O139   Zn5       2.02804      .   S
    O127   Zn7       2.02634      .   S
    O134   Zn0       2.02731      .   S
    O141   Zn11      2.02589      .   S
    O122   Zn9       2.02673      .   S
    O129   Zn2       2.02512      .   S
    C95    C37       1.39991      .   S
    C95    C59       1.39994      .   S
    C95    H23       1.08664      .   S
    C37    C84       1.39960      .   S
    C37    C36       1.49585      .   S
    C59    C89       1.39948      .   S
    C59    C58       1.49584      .   S
    C84    C47       1.39931      .   S
    C84    H12       1.08747      .   S
    C89    C47       1.39942      .   S
    C89    H17       1.08749      .   S
    C47    C46       1.49589      .   S
    C36    O108      1.27917  1_565   S
    C36    O155      1.27864      .   S
    C58    O119      1.27871      .   S
    C58    O144      1.27897  1_655   S
    C46    O113      1.27899  1_655   S
    C46    O149      1.27911  1_565   S
    O108   Zn0       2.02526      .   S
    O155   Zn2       2.02745      .   S
    O119   Zn11      2.02654      .   S
    O144   Zn9       2.02596      .   S
    O113   Zn5       2.02479      .   S
    O149   Zn7       2.02671      .   S
    Zn7    O137      2.02605      .   S
    Zn7    O115      2.02665      .   S
    Zn0    O131      2.02644      .   S
    Zn0    O153      2.02681      .   S
    Zn5    O125      2.02563      .   S
    Zn5    O151      2.02798      .   S
    Zn2    O132      2.02621      .   S
    Zn2    O110      2.02592      .   S
    Zn11   O120      2.02495      .   S
    Zn11   O146      2.02685      .   S
    Zn9    O143      2.02736      .   S
    Zn9    O117      2.02476      .   S
    O137   C70       1.27735  1_655   S
    O125   C70       1.27755  1_565   S
    O131   C82       1.27876      .   S
    O120   C60       1.27902  1_655   S
    O132   C82       1.27911  1_565   S
    O143   C60       1.27874      .   S
    C70    C71       1.49940      .   S
    C82    C83       1.49591      .   S
    C60    C61       1.49581      .   S
    H29    C101      1.08747      .   S
    H24    C96       1.08745      .   S
    H35    C107      1.08759      .   S
    C71    C101      1.39946      .   S
    C71    C96       1.39934      .   S
    C101   C83       1.39954      .   S
    C96    C61       1.39946      .   S
    C83    C107      1.39954      .   S
    C61    C107      1.39945      .   S
    O110   C40       1.27863      .   S
    O153   C40       1.27914  1_545   S
    O117   C54       1.27903  1_455   S
    O115   C50       1.27903  1_545   S
    O146   C54       1.27845      .   S
    O151   C50       1.27890  1_455   S
    C40    C41       1.49605      .   S
    C54    C55       1.49608      .   S
    C50    C51       1.49635      .   S
    C41    C86       1.39967      .   S
    C41    C94       1.39925      .   S
    C55    C93       1.39941      .   S
    C55    C88       1.39949      .   S
    C51    C91       1.39960      .   S
    C51    C85       1.39950      .   S
    H21    C93       1.08750      .   S
    H14    C86       1.08751      .   S
    H22    C94       1.08753      .   S
    H19    C91       1.08752      .   S
    H16    C88       1.08755      .   S
    H13    C85       1.08753      .   S
    C93    C43       1.39935      .   S
    C86    C49       1.39949      .   S
    C94    C57       1.39975      .   S
    C88    C45       1.39951      .   S
    C91    C53       1.39948      .   S
    C85    C39       1.39957      .   S
    C43    C87       1.39946      .   S
    C43    C42       1.49596      .   S
    C49    C90       1.39958      .   S
    C49    C48       1.49613      .   S
    C57    C90       1.39940      .   S
    C57    C56       1.49608      .   S
    C45    C87       1.39950      .   S
    C45    C44       1.49597      .   S
    C53    C92       1.39968      .   S
    C53    C52       1.49631      .   S
    O154   C42       1.27893  1_455   S
    O154   Zn1       2.02575      .   S
    C39    C92       1.39952      .   S
    C39    C38       1.49626      .   S
    O148   C48       1.27863      .   S
    O148   Zn4       2.02807      .   S
    O145   C52       1.27898  1_545   S
    O145   Zn10      2.02785      .   S
    O118   C56       1.27909  1_545   S
    O118   Zn10      2.02543      .   S
    O112   C44       1.27891      .   S
    O112   Zn4       2.02620      .   S
    O109   C38       1.27896  1_455   S
    O109   Zn1       2.02626      .   S
    C87    H15       1.08744      .   S
    C90    H18       1.08743      .   S
    C92    H20       1.08746      .   S
    Zn10   O140      2.02824      .   S
    Zn10   O123      2.02468      .   S
    Zn1    O128      2.02735      .   S
    Zn1    O135      2.02660      .   S
    Zn4    O138      2.02668      .   S
    Zn4    O126      2.02523      .   S
    Zn0    Zn2       2.56357  1_545   S
    Zn1    Zn3       2.56292  1_456   S
    Zn4    Zn6       2.56322  1_556   S
    Zn5    Zn7       2.56316  1_465   S
    Zn8    Zn10      2.56305  1_564   S
    Zn9    Zn11      2.56421  1_455   S
