# CIF file generated by openbabel 2.4.90, see http://openbabel.sf.net
data_I
_chemical_name_common ''
_cell_length_a 13.501
_cell_length_b 14.422
_cell_length_c 15.353
_cell_angle_alpha 89.961
_cell_angle_beta 90.056
_cell_angle_gamma 88.507
_space_group_name_H-M_alt 'P 1'
_space_group_name_Hall 'P 1'
loop_
    _symmetry_equiv_pos_as_xyz
    x,y,z
loop_
    _atom_site_label
    _atom_site_type_symbol
    _atom_site_fract_x
    _atom_site_fract_y
    _atom_site_fract_z
    _atom_site_occupancy
    Zn0     Zn   0.32142   0.83233   0.16313   1.000
    Zn1     Zn   0.04195   0.03942   0.55561   1.000
    Zn2     Zn   0.17897   0.16457   0.66318   1.000
    Zn3     Zn   0.53715   0.46041   0.44098   1.000
    Zn4     Zn   0.67906   0.32748   0.34018   1.000
    Zn5     Zn   0.96306   0.53957   0.94106   1.000
    Zn6     Zn   0.82097   0.67248   0.84017   1.000
    C7      C    0.55007   0.81984   0.13424   1.000
    C8      C    0.64089   0.53689   0.30870   1.000
    C9      C    0.83278   0.61293   0.04064   1.000
    Zn10    Zn   0.45793   0.96036   0.05570   1.000
    C11     C    0.95031   0.17990   0.63460   1.000
    C12     C    0.85955   0.46301   0.80869   1.000
    C13     C    0.66745   0.38685   0.54060   1.000
    C14     C    0.44932   0.32158   0.36260   1.000
    C15     C    0.35954   0.04281   0.18785   1.000
    C16     C    0.17422   0.12178   0.46141   1.000
    C17     C    0.05126   0.67788   0.86284   1.000
    C18     C    0.14049   0.95549   0.68656   1.000
    C19     C    0.32612   0.87843   0.96109   1.000
    O20     O    0.56865   0.87179   0.06793   1.000
    O21     O    0.47697   0.83488   0.18504   1.000
    O22     O    0.56264   0.55470   0.35459   1.000
    O23     O    0.70105   0.46926   0.32250   1.000
    O24     O    0.88263   0.53601   0.04880   1.000
    O25     O    0.84962   0.66836   0.97750   1.000
    O26     O    0.93154   0.12812   0.56820   1.000
    O27     O    0.02349   0.16472   0.68545   1.000
    O28     O    0.93774   0.44521   0.85479   1.000
    O29     O    0.79939   0.53065   0.82229   1.000
    O30     O    0.61760   0.46376   0.54883   1.000
    O31     O    0.65060   0.33155   0.47750   1.000
    O32     O    0.42748   0.37676   0.42646   1.000
    O33     O    0.52432   0.33164   0.31369   1.000
    O34     O    0.43672   0.05811   0.14068   1.000
    O35     O    0.30030   0.97740   0.17396   1.000
    O36     O    0.12530   0.04666   0.45179   1.000
    O37     O    0.16040   0.17615   0.52593   1.000
    O38     O    0.07356   0.62243   0.92640   1.000
    O39     O    0.97586   0.66807   0.81423   1.000
    O40     O    0.06214   0.94121   0.64055   1.000
    O41     O    0.20052   0.01988   0.67095   1.000
    O42     O    0.37450   0.95385   0.95161   1.000
    O43     O    0.34066   0.82401   0.02560   1.000
    Og44    Og   0.57253   0.79261   0.13948   1.000
    Og45    Og   0.64744   0.55817   0.28402   1.000
    Og46    Og   0.80668   0.62098   0.06211   1.000
    Og47    Og   0.92785   0.20712   0.63984   1.000
    Og48    Og   0.85304   0.44172   0.78402   1.000
    Og49    Og   0.69358   0.37879   0.56212   1.000
    Og50    Og   0.42730   0.29506   0.35757   1.000
    Og51    Og   0.35329   0.06406   0.21283   1.000
    Og52    Og   0.19935   0.12935   0.43918   1.000
    Og53    Og   0.07325   0.70441   0.85773   1.000
    Og54    Og   0.14683   0.93448   0.71171   1.000
    Og55    Og   0.30098   0.87076   0.93885   1.000
loop_
    _geom_bond_atom_site_label_1
    _geom_bond_atom_site_label_2
    _geom_bond_distance
    _geom_bond_site_symmetry_2
    _ccdc_geom_bond_type
    O43    Zn0       2.13074      .   S
    O43    C19       1.27514  1_554   S
    C9     O24       1.28850      .   S
    C9     O25       1.28030  1_554   S
    O24    Zn5       1.98094  1_554   S
    Zn10   O20       1.94963      .   S
    Zn10   O34       1.93741  1_565   S
    Zn10   O42       1.95796  1_554   S
    O20    C7        1.29230      .   S
    C7     O21       1.27277      .   S
    O34    C15       1.29305      .   S
    Zn0    O35       2.11090      .   S
    Zn0    O21       2.12774      .   S
    O35    C15       1.27060  1_565   S
    C8     O23       1.27042      .   S
    C8     O22       1.29083      .   S
    O33    Zn4       2.12726      .   S
    O33    C14       1.27250      .   S
    O23    Zn4       2.09140      .   S
    Zn4    O31       2.14396      .   S
    O22    Zn3       1.93641      .   S
    C14    O32       1.29260      .   S
    O32    Zn3       1.94680      .   S
    Zn3    O30       1.98072      .   S
    O36    C16       1.29188      .   S
    O36    Zn1       1.95633      .   S
    C16    O37       1.27459      .   S
    O31    C13       1.27917      .   S
    O37    Zn2       2.12775      .   S
    C13    O30       1.28880      .   S
    Zn1    O26       1.94866  1_455   S
    Zn1    O40       1.93855  1_545   S
    O26    C11       1.29284      .   S
    C11    O27       1.27303  1_655   S
    O40    C18       1.29250      .   S
    Zn2    O41       2.10278      .   S
    Zn2    O27       2.12704      .   S
    O41    C18       1.27120  1_545   S
    C12    O29       1.27059      .   S
    C12    O28       1.29051      .   S
    O39    Zn6       2.12847      .   S
    O39    C17       1.27255  1_655   S
    O29    Zn6       2.09185      .   S
    Zn6    O25       2.14375      .   S
    O28    Zn5       1.93625      .   S
    C17    O38       1.29165      .   S
    O38    Zn5       1.94872  1_455   S
    O42    C19       1.29147      .   S
    C7     Og44      0.49627      .   S
    C8     Og45      0.49692      .   S
    C9     Og46      0.49440      .   S
    C11    Og47      0.49646      .   S
    C12    Og48      0.49699      .   S
    C13    Og49      0.49459      .   S
    C14    Og50      0.49665      .   S
    C15    Og51      0.49697      .   S
    C16    Og52      0.49566      .   S
    C17    Og53      0.49657      .   S
    C18    Og54      0.49664      .   S
    C19    Og55      0.49581      .   S
