# CIF file generated by openbabel 2.4.90, see http://openbabel.sf.net
data_I
_chemical_name_common ''
_cell_length_a 13.501
_cell_length_b 14.422
_cell_length_c 15.353
_cell_angle_alpha 89.961
_cell_angle_beta 90.056
_cell_angle_gamma 88.507
_space_group_name_H-M_alt 'P 1'
_space_group_name_Hall 'P 1'
loop_
    _symmetry_equiv_pos_as_xyz
    x,y,z
loop_
    _atom_site_label
    _atom_site_type_symbol
    _atom_site_fract_x
    _atom_site_fract_y
    _atom_site_fract_z
    _atom_site_occupancy
    Zr0     Zr   0.45793   0.96036   0.05570   1.000
    Zr1     Zr   0.32142   0.83233   0.16313   1.000
    Zr2     Zr   0.04195   0.03942   0.55561   1.000
    Zr3     Zr   0.17897   0.16457   0.66318   1.000
    Zr4     Zr   0.53715   0.46041   0.44098   1.000
    Zr5     Zr   0.67906   0.32748   0.34018   1.000
    Zr6     Zr   0.96306   0.53957   0.94106   1.000
    Zr7     Zr   0.82097   0.67248   0.84017   1.000
    Zr8     Zr   0.55007   0.81984   0.13424   1.000
    Zr9     Zr   0.64089   0.53689   0.30870   1.000
    Zr10    Zr   0.83278   0.61293   0.04064   1.000
    Zr11    Zr   0.95031   0.17990   0.63460   1.000
    Zr12    Zr   0.85955   0.46301   0.80869   1.000
    Zr13    Zr   0.66745   0.38685   0.54060   1.000
    Zr14    Zr   0.44932   0.32158   0.36260   1.000
    Zr15    Zr   0.35954   0.04281   0.18785   1.000
    Zr16    Zr   0.17422   0.12178   0.46141   1.000
    Zr17    Zr   0.05126   0.67788   0.86284   1.000
    Zr18    Zr   0.14049   0.95549   0.68656   1.000
    Zr19    Zr   0.32612   0.87843   0.96109   1.000
    Zr20    Zr   0.56865   0.87179   0.06793   1.000
    Zr21    Zr   0.47697   0.83488   0.18504   1.000
    Zr22    Zr   0.56264   0.55470   0.35459   1.000
    Zr23    Zr   0.70105   0.46926   0.32250   1.000
    Zr24    Zr   0.88263   0.53601   0.04880   1.000
    Zr25    Zr   0.84962   0.66836   0.97750   1.000
    Zr26    Zr   0.93154   0.12812   0.56820   1.000
    Zr27    Zr   0.02349   0.16472   0.68545   1.000
    Zr28    Zr   0.93774   0.44521   0.85479   1.000
    Zr29    Zr   0.79939   0.53065   0.82229   1.000
    Zr30    Zr   0.61760   0.46376   0.54883   1.000
    Zr31    Zr   0.65060   0.33155   0.47750   1.000
    Zr32    Zr   0.42748   0.37676   0.42646   1.000
    Zr33    Zr   0.52432   0.33164   0.31369   1.000
    Zr34    Zr   0.43672   0.05811   0.14068   1.000
    Zr35    Zr   0.30030   0.97740   0.17396   1.000
    Zr36    Zr   0.12530   0.04666   0.45179   1.000
    Zr37    Zr   0.16040   0.17615   0.52593   1.000
    Zr38    Zr   0.07356   0.62243   0.92640   1.000
    Zr39    Zr   0.97586   0.66807   0.81423   1.000
    Zr40    Zr   0.06214   0.94121   0.64055   1.000
    Zr41    Zr   0.20052   0.01988   0.67095   1.000
    Zr42    Zr   0.37450   0.95385   0.95161   1.000
    Zr43    Zr   0.34066   0.82401   0.02560   1.000
    O44     O    0.33104   0.82817   0.09436   1.000
    O45     O    0.33339   0.85122   0.99334   1.000
    O46     O    0.85771   0.57447   0.04472   1.000
    O47     O    0.84120   0.64065   0.00907   1.000
    O48     O    0.92285   0.53779   0.99493   1.000
    O49     O    0.51329   0.91608   0.06181   1.000
    O50     O    0.44733   0.00923   0.09819   1.000
    O51     O    0.41622   0.95711   0.00365   1.000
    O52     O    0.55936   0.84581   0.10108   1.000
    O53     O    0.51352   0.82736   0.15964   1.000
    O54     O    0.39813   0.05046   0.16426   1.000
    O55     O    0.31086   0.90486   0.16855   1.000
    O56     O    0.39920   0.83360   0.17408   1.000
    O57     O    0.32992   0.01010   0.18091   1.000
    O58     O    0.67097   0.50307   0.31560   1.000
    O59     O    0.60177   0.54579   0.33165   1.000
    O60     O    0.60169   0.32956   0.32693   1.000
    O61     O    0.48682   0.32661   0.33814   1.000
    O62     O    0.69006   0.39837   0.33134   1.000
    O63     O    0.66483   0.32951   0.40884   1.000
    O64     O    0.54989   0.50755   0.39778   1.000
    O65     O    0.43840   0.34917   0.39453   1.000
    O66     O    0.48231   0.41858   0.43372   1.000
    O67     O    0.57737   0.46209   0.49490   1.000
    O68     O    0.14976   0.08422   0.45660   1.000
    O69     O    0.08362   0.04304   0.50370   1.000
    O70     O    0.16731   0.14897   0.49367   1.000
    O71     O    0.65902   0.35920   0.50905   1.000
    O72     O    0.16969   0.17036   0.59455   1.000
    O73     O    0.64253   0.42531   0.54471   1.000
    O74     O    0.98675   0.08377   0.56190   1.000
    O75     O    0.05204   0.99031   0.59808   1.000
    O76     O    0.94093   0.15401   0.60140   1.000
    O77     O    0.98690   0.17231   0.66002   1.000
    O78     O    0.10131   0.94835   0.66355   1.000
    O79     O    0.18975   0.09222   0.66706   1.000
    O80     O    0.10123   0.16465   0.67431   1.000
    O81     O    0.17051   0.98768   0.67875   1.000
    O82     O    0.82947   0.49683   0.81549   1.000
    O83     O    0.89865   0.45411   0.83174   1.000
    O84     O    0.89842   0.67028   0.82720   1.000
    O85     O    0.01356   0.67298   0.83853   1.000
    O86     O    0.81018   0.60157   0.83123   1.000
    O87     O    0.83530   0.67042   0.90883   1.000
    O88     O    0.95040   0.49239   0.89792   1.000
    O89     O    0.06241   0.65016   0.89462   1.000
    O90     O    0.01831   0.58100   0.93373   1.000
    O91     O    0.35031   0.91614   0.95635   1.000
    N92     N    0.82304   0.34125   0.66327   1.000
    O93     O    0.86983   0.28099   0.65286   1.000
    O94     O    0.83641   0.38616   0.71748   1.000
    O95     O    0.76484   0.35801   0.61807   1.000
    N96     N    0.17568   0.83525   0.83475   1.000
    O97     O    0.16284   0.87961   0.77952   1.000
    O98     O    0.23205   0.85108   0.88124   1.000
    O99     O    0.12997   0.77646   0.84496   1.000
    N100    N    0.67737   0.65853   0.16310   1.000
    O101    O    0.73550   0.64176   0.11798   1.000
    O102    O    0.66404   0.61367   0.21739   1.000
    O103    O    0.63056   0.71877   0.15260   1.000
    N104    N    0.32469   0.16422   0.33512   1.000
    O105    O    0.33743   0.11945   0.28022   1.000
    O106    O    0.37049   0.22301   0.34509   1.000
    O107    O    0.26831   0.14868   0.38159   1.000
loop_
    _geom_bond_atom_site_label_1
    _geom_bond_atom_site_label_2
    _geom_bond_distance
    _geom_bond_site_symmetry_2
    _ccdc_geom_bond_type
    Zr43   O44       1.06537      .   S
    Zr1    O44       1.06537      .   S
    Zr43   O45       0.63757  1_554   S
    Zr19   O45       0.63757      .   S
    Zr10   O46       0.64425      .   S
    Zr24   O46       0.64425      .   S
    Zr10   O47       0.64015      .   S
    Zr25   O47       0.64015  1_556   S
    Zr24   O48       0.99047  1_554   S
    Zr6    O48       0.99047      .   S
    Zr0    O49       0.97482      .   S
    Zr20   O49       0.97482      .   S
    Zr0    O50       0.96871  1_565   S
    Zr34   O50       0.96871      .   S
    Zr0    O51       0.97898      .   S
    Zr42   O51       0.97898  1_556   S
    Zr20   O52       0.64615      .   S
    Zr8    O52       0.64615      .   S
    Zr8    O53       0.63638      .   S
    Zr21   O53       0.63638      .   S
    Zr34   O54       0.64653      .   S
    Zr15   O54       0.64653      .   S
    Zr1    O55       1.05545      .   S
    Zr35   O55       1.05545      .   S
    Zr1    O56       1.06387      .   S
    Zr21   O56       1.06387      .   S
    Zr35   O57       0.63530  1_565   S
    Zr15   O57       0.63530      .   S
    Zr9    O58       0.63521      .   S
    Zr23   O58       0.63521      .   S
    Zr9    O59       0.64542      .   S
    Zr22   O59       0.64542      .   S
    Zr33   O60       1.06363      .   S
    Zr5    O60       1.06363      .   S
    Zr33   O61       0.63625      .   S
    Zr14   O61       0.63625      .   S
    Zr23   O62       1.04570      .   S
    Zr5    O62       1.04570      .   S
    Zr5    O63       1.07198      .   S
    Zr31   O63       1.07198      .   S
    Zr22   O64       0.96820      .   S
    Zr4    O64       0.96820      .   S
    Zr14   O65       0.64630      .   S
    Zr32   O65       0.64630      .   S
    Zr32   O66       0.97340      .   S
    Zr4    O66       0.97340      .   S
    Zr4    O67       0.99036      .   S
    Zr30   O67       0.99036      .   S
    Zr36   O68       0.64594      .   S
    Zr16   O68       0.64594      .   S
    Zr36   O69       0.97816      .   S
    Zr2    O69       0.97816      .   S
    Zr16   O70       0.63730      .   S
    Zr37   O70       0.63730      .   S
    Zr31   O71       0.63958      .   S
    Zr13   O71       0.63958      .   S
    Zr37   O72       1.06387      .   S
    Zr3    O72       1.06387      .   S
    Zr13   O73       0.64440      .   S
    Zr30   O73       0.64440      .   S
    Zr2    O74       0.97433  1_455   S
    Zr26   O74       0.97433      .   S
    Zr2    O75       0.96927  1_545   S
    Zr40   O75       0.96927      .   S
    Zr26   O76       0.64642      .   S
    Zr11   O76       0.64642      .   S
    Zr11   O77       0.63652      .   S
    Zr27   O77       0.63652  1_455   S
    Zr40   O78       0.64625      .   S
    Zr18   O78       0.64625      .   S
    Zr3    O79       1.05139      .   S
    Zr41   O79       1.05139      .   S
    Zr3    O80       1.06352      .   S
    Zr27   O80       1.06352      .   S
    Zr41   O81       0.63560  1_545   S
    Zr18   O81       0.63560      .   S
    Zr12   O82       0.63530      .   S
    Zr29   O82       0.63530      .   S
    Zr12   O83       0.64525      .   S
    Zr28   O83       0.64525      .   S
    Zr39   O84       1.06423      .   S
    Zr7    O84       1.06423      .   S
    Zr39   O85       0.63628  1_655   S
    Zr17   O85       0.63628      .   S
    Zr29   O86       1.04593      .   S
    Zr7    O86       1.04593      .   S
    Zr7    O87       1.07187      .   S
    Zr25   O87       1.07187      .   S
    Zr28   O88       0.96812      .   S
    Zr6    O88       0.96812      .   S
    Zr17   O89       0.64582      .   S
    Zr38   O89       0.64582      .   S
    Zr38   O90       0.97436      .   S
    Zr6    O90       0.97436  1_655   S
    Zr42   O91       0.64574      .   S
    Zr19   O91       0.64574      .   S
    N92    O93       1.07313      .   S
    Zr11   O93       1.81760      .   S
    N92    O94       1.07297      .   S
    Zr12   O94       1.81835      .   S
    N92    O95       1.07058      .   S
    Zr13   O95       1.81227      .   S
    N96    O97       1.07317      .   S
    Zr18   O97       1.81803      .   S
    N96    O98       1.07187      .   S
    Zr19   O98       1.81531      .   S
    N96    O99       1.07316      .   S
    Zr17   O99       1.81780      .   S
    N100   O101      1.07047      .   S
    Zr10   O101      1.81188      .   S
    N100   O102      1.07295      .   S
    Zr9    O102      1.81822      .   S
    N100   O103      1.07281      .   S
    Zr8    O103      1.81700      .   S
    N104   O105      1.07342      .   S
    Zr15   O105      1.81876      .   S
    N104   O106      1.07322      .   S
    Zr14   O106      1.81797      .   S
    N104   O107      1.07169      .   S
    Zr16   O107      1.81490      .   S
