# CIF file generated by openbabel 2.4.90, see http://openbabel.sf.net
data_I
_chemical_name_common 'VESTA_phase_1'
_cell_length_a 13.637
_cell_length_b 13.618
_cell_length_c 16.926
_cell_angle_alpha 90.002
_cell_angle_beta 90.005
_cell_angle_gamma 117.781
_space_group_name_H-M_alt 'P 1'
_space_group_name_Hall 'P 1'
loop_
    _symmetry_equiv_pos_as_xyz
    x,y,z
loop_
    _atom_site_label
    _atom_site_type_symbol
    _atom_site_fract_x
    _atom_site_fract_y
    _atom_site_fract_z
    _atom_site_occupancy
    Zn0     Zn   0.08924   0.10963   0.49679   1.000
    Zn1     Zn   0.91017   0.39030   0.99960   1.000
    Zn2     Zn   0.91017   0.89030   0.50039   1.000
    Zn3     Zn   0.08924   0.60965   0.00000   1.000
    H4      H    0.32406   0.16608   0.51100   1.000
    H5      H    0.50895   0.33062   0.51547   1.000
    H6      H    0.34415   0.53256   0.47891   1.000
    H7      H    0.16710   0.35912   0.47547   1.000
    H8      H    0.94569   0.26635   0.33600   1.000
    H9      H    0.84996   0.31069   0.22549   1.000
    H10     H    0.69894   0.15772   0.15084   1.000
    H11     H    0.74023   0.91831   0.29462   1.000
    H12     H    0.49365   0.88178   0.29103   1.000
    H13     H    0.39048   0.68511   0.33960   1.000
    H14     H    0.54812   0.58282   0.16126   1.000
    H15     H    0.65128   0.77933   0.11298   1.000
    H16     H    0.31046   0.31043   0.32183   1.000
    H17     H    0.12778   0.16903   0.27100   1.000
    H18     H    0.02720   0.22288   0.16931   1.000
    H19     H    0.28870   0.55847   0.17489   1.000
    H20     H    0.67507   0.33415   0.01044   1.000
    H21     H    0.49001   0.16969   0.01274   1.000
    H22     H    0.65546   0.96741   0.98137   1.000
    H23     H    0.83261   0.14077   0.97879   1.000
    H24     H    0.05254   0.23416   0.83739   1.000
    H25     H    0.14683   0.18951   0.72602   1.000
    H26     H    0.29722   0.34228   0.65070   1.000
    H27     H    0.25919   0.58216   0.79630   1.000
    H28     H    0.50698   0.61820   0.78970   1.000
    H29     H    0.61174   0.81492   0.83792   1.000
    H30     H    0.44980   0.91728   0.66286   1.000
    H31     H    0.34502   0.72069   0.61500   1.000
    H32     H    0.69188   0.18943   0.82196   1.000
    H33     H    0.87424   0.33044   0.77042   1.000
    H34     H    0.97320   0.27642   0.66761   1.000
    H35     H    0.71060   0.94133   0.67325   1.000
    H36     H    0.67507   0.83415   0.48953   1.000
    H37     H    0.49000   0.66969   0.48725   1.000
    H38     H    0.65547   0.46740   0.51863   1.000
    H39     H    0.83261   0.64078   0.52120   1.000
    H40     H    0.05252   0.73415   0.66261   1.000
    H41     H    0.14681   0.68951   0.77000   1.000
    H42     H    0.29719   0.84229   0.84926   1.000
    H43     H    0.25915   0.08213   0.70374   1.000
    H44     H    0.50693   0.11813   0.71031   1.000
    H45     H    0.61168   0.31483   0.66212   1.000
    H46     H    0.44980   0.41729   0.83715   1.000
    H47     H    0.34503   0.22073   0.88503   1.000
    H48     H    0.69181   0.68936   0.67801   1.000
    H49     H    0.87419   0.83039   0.72953   1.000
    H50     H    0.97318   0.77642   0.83235   1.000
    H51     H    0.71058   0.44132   0.82675   1.000
    H52     H    0.32407   0.66609   0.98848   1.000
    H53     H    0.50895   0.83063   0.98459   1.000
    H54     H    0.34416   0.03256   0.02107   1.000
    H55     H    0.16710   0.85914   0.02453   1.000
    H56     H    0.94571   0.76637   0.16391   1.000
    H57     H    0.84999   0.81071   0.27450   1.000
    H58     H    0.69895   0.65774   0.34912   1.000
    H59     H    0.74022   0.41832   0.20533   1.000
    H60     H    0.49363   0.38175   0.20889   1.000
    H61     H    0.39044   0.18506   0.16036   1.000
    H62     H    0.54811   0.08284   0.33873   1.000
    H63     H    0.65129   0.27937   0.38699   1.000
    H64     H    0.31042   0.81038   0.17820   1.000
    H65     H    0.12779   0.66899   0.22905   1.000
    H66     H    0.02721   0.72286   0.33072   1.000
    H67     H    0.28868   0.05847   0.32509   1.000
    C68     C    0.33326   0.24943   0.50425   1.000
    C69     C    0.43637   0.34272   0.50660   1.000
    C70     C    0.44527   0.44924   0.49820   1.000
    C71     C    0.34557   0.45398   0.48630   1.000
    C72     C    0.24528   0.35717   0.48443   1.000
    C73     C    0.90484   0.06089   0.38696   1.000
    C74     C    0.84736   0.08985   0.32223   1.000
    C75     C    0.87874   0.20065   0.30313   1.000
    C76     C    0.82536   0.22486   0.24154   1.000
    C77     C    0.74156   0.13971   0.19856   1.000
    C78     C    0.71152   0.02935   0.21740   1.000
    C79     C    0.76313   0.00383   0.27930   1.000
    C80     C    0.57751   0.84064   0.19934   1.000
    C81     C    0.50559   0.81587   0.26361   1.000
    C82     C    0.44877   0.70685   0.29064   1.000
    C83     C    0.46460   0.62379   0.25351   1.000
    C84     C    0.53573   0.64838   0.18895   1.000
    C85     C    0.59289   0.75762   0.16188   1.000
    C86     C    0.31076   0.44236   0.25144   1.000
    C87     C    0.26536   0.33267   0.27830   1.000
    C88     C    0.16353   0.25378   0.24872   1.000
    C89     C    0.10707   0.28342   0.19248   1.000
    C90     C    0.15257   0.39350   0.16632   1.000
    C91     C    0.25501   0.47345   0.19589   1.000
    C92     C    0.09218   0.42800   0.10720   1.000
    C93     C    0.66598   0.25073   0.00388   1.000
    C94     C    0.56279   0.15749   0.00546   1.000
    C95     C    0.55404   0.05091   0.99818   1.000
    C96     C    0.65392   0.04605   0.98777   1.000
    C97     C    0.75426   0.14282   0.98646   1.000
    C98     C    0.09449   0.43948   0.88895   1.000
    C99     C    0.15147   0.41062   0.82376   1.000
    C100    C    0.11943   0.29977   0.80433   1.000
    C101    C    0.17196   0.27539   0.74226   1.000
    C102    C    0.25545   0.36041   0.69902   1.000
    C103    C    0.28627   0.47085   0.71821   1.000
    C104    C    0.23565   0.49656   0.78071   1.000
    C105    C    0.42083   0.65935   0.69972   1.000
    C106    C    0.49445   0.68412   0.76296   1.000
    C107    C    0.55220   0.79320   0.78976   1.000
    C108    C    0.53563   0.87631   0.75342   1.000
    C109    C    0.46278   0.85170   0.68990   1.000
    C110    C    0.40468   0.74241   0.66308   1.000
    C111    C    0.69011   0.05751   0.75070   1.000
    C112    C    0.73624   0.16711   0.77792   1.000
    C113    C    0.83787   0.24579   0.74789   1.000
    C114    C    0.89343   0.21603   0.69100   1.000
    C115    C    0.84720   0.10606   0.66450   1.000
    C116    C    0.74490   0.02631   0.69445   1.000
    C117    C    0.90676   0.07147   0.60471   1.000
    C118    C    0.66598   0.75074   0.49609   1.000
    C119    C    0.56278   0.65750   0.49453   1.000
    C120    C    0.55403   0.55090   0.50183   1.000
    C121    C    0.65392   0.54605   0.51222   1.000
    C122    C    0.75426   0.64282   0.51352   1.000
    C123    C    0.09446   0.93946   0.61106   1.000
    C124    C    0.15144   0.91060   0.67626   1.000
    C125    C    0.11941   0.79976   0.69567   1.000
    C126    C    0.17193   0.77539   0.75776   1.000
    C127    C    0.25543   0.86042   0.80101   1.000
    C128    C    0.28623   0.97084   0.78183   1.000
    C129    C    0.23562   0.99655   0.71932   1.000
    C130    C    0.42081   0.15934   0.80032   1.000
    C131    C    0.49440   0.18407   0.73709   1.000
    C132    C    0.55215   0.29314   0.71027   1.000
    C133    C    0.53559   0.37627   0.74660   1.000
    C134    C    0.46277   0.35169   0.81011   1.000
    C135    C    0.40468   0.24242   0.83696   1.000
    C136    C    0.69006   0.55747   0.74928   1.000
    C137    C    0.73619   0.66706   0.72200   1.000
    C138    C    0.83782   0.74575   0.75207   1.000
    C139    C    0.89340   0.71601   0.80897   1.000
    C140    C    0.84718   0.60606   0.83549   1.000
    C141    C    0.74487   0.52629   0.80554   1.000
    C142    C    0.90676   0.57149   0.89529   1.000
    C143    C    0.33327   0.74944   0.99581   1.000
    C144    C    0.43637   0.84274   0.99343   1.000
    C145    C    0.44527   0.94925   0.00178   1.000
    C146    C    0.34557   0.95400   0.01360   1.000
    C147    C    0.24528   0.85718   0.01558   1.000
    C148    C    0.90483   0.56090   0.11302   1.000
    C149    C    0.84736   0.58987   0.17775   1.000
    C150    C    0.87875   0.70067   0.19686   1.000
    C151    C    0.82538   0.72488   0.25845   1.000
    C152    C    0.74157   0.63973   0.30141   1.000
    C153    C    0.71152   0.52937   0.28256   1.000
    C154    C    0.76312   0.50385   0.22065   1.000
    C155    C    0.57751   0.34065   0.30061   1.000
    C156    C    0.50557   0.31585   0.23633   1.000
    C157    C    0.44874   0.20682   0.20932   1.000
    C158    C    0.46456   0.12377   0.24646   1.000
    C159    C    0.53571   0.14839   0.31102   1.000
    C160    C    0.59289   0.25764   0.33808   1.000
    C161    C    0.31072   0.94234   0.24857   1.000
    C162    C    0.26534   0.83263   0.22168   1.000
    C163    C    0.16352   0.75375   0.25131   1.000
    C164    C    0.10707   0.78341   0.30755   1.000
    C165    C    0.15256   0.89350   0.33368   1.000
    C166    C    0.25499   0.97344   0.30411   1.000
    C167    C    0.09218   0.92802   0.39276   1.000
    N168    N    0.23832   0.25581   0.49375   1.000
    N169    N    0.76110   0.24421   0.99507   1.000
    N170    N    0.76110   0.74422   0.50491   1.000
    N171    N    0.23833   0.75583   0.00000   1.000
    O172    O    0.99582   0.13831   0.41273   1.000
    O173    O    0.85824   0.96024   0.41030   1.000
    O174    O    0.63179   0.94819   0.16959   1.000
    O175    O    0.41252   0.51623   0.28394   1.000
    O176    O    0.13908   0.52996   0.08661   1.000
    O177    O    0.99885   0.35341   0.08258   1.000
    O178    O    0.00244   0.36257   0.91362   1.000
    O179    O    0.14245   0.53944   0.91378   1.000
    O180    O    0.36565   0.55177   0.67000   1.000
    O181    O    0.58857   0.98396   0.78366   1.000
    O182    O    0.85859   0.96996   0.58307   1.000
    O183    O    0.00000   0.14552   0.58057   1.000
    O184    O    0.00241   0.86254   0.58637   1.000
    O185    O    0.14244   0.03940   0.58622   1.000
    O186    O    0.36563   0.05176   0.82999   1.000
    O187    O    0.58851   0.48389   0.71634   1.000
    O188    O    0.85861   0.46997   0.91692   1.000
    O189    O    0.00000   0.64554   0.91942   1.000
    O190    O    0.99581   0.63832   0.08727   1.000
    O191    O    0.85825   0.46024   0.08960   1.000
    O192    O    0.63179   0.44821   0.33036   1.000
    O193    O    0.41246   0.01620   0.21605   1.000
    O194    O    0.13910   0.02996   0.41339   1.000
    O195    O    0.99886   0.85343   0.41742   1.000
loop_
    _geom_bond_atom_site_label_1
    _geom_bond_atom_site_label_2
    _geom_bond_distance
    _geom_bond_site_symmetry_2
    _ccdc_geom_bond_type
    Zn3    N171      2.07923      .   S
    Zn3    O176      2.11569      .   S
    Zn3    O190      2.10275  1_455   S
    Zn3    O179      2.05358  1_554   S
    Zn3    O189      2.03333  1_554   S
    N171   C147      1.36435      .   S
    N171   C143      1.33936  1_554   S
    C145   C146      1.40516      .   S
    C145   C144      1.40521  1_554   S
    C145   C95       1.48533  1_564   S
    C93    C94       1.38840      .   S
    C93    H20       1.08943      .   S
    C93    N169      1.34910  1_554   S
    C94    H21       1.08690      .   S
    C94    C95       1.40527  1_554   S
    C146   C147      1.38884      .   S
    C146   H54       1.08638  1_565   S
    C147   H55       1.08948      .   S
    O177   C92       1.27286  1_655   S
    O177   Zn1       2.06231  1_554   S
    O176   C92       1.27700      .   S
    O190   C148      1.27336      .   S
    O191   C148      1.27593      .   S
    O191   Zn1       2.08759  1_554   S
    C92    C90       1.50357      .   S
    H15    C85       1.08955      .   S
    C148   C149      1.50284      .   S
    H10    C77       1.08771      .   S
    H61    C157      1.08947      .   S
    H14    C84       1.08899      .   S
    C85    C84       1.39628      .   S
    C85    C80       1.39474      .   S
    H56    C150      1.08803      .   S
    C90    C89       1.40042      .   S
    C90    C91       1.40340      .   S
    H18    C89       1.08752      .   S
    O174   C80       1.39150      .   S
    O174   C78       1.39216  1_565   S
    H19    C91       1.08728      .   S
    C149   C150      1.40095      .   S
    C149   C154      1.40174      .   S
    H64    C162      1.08860      .   S
    C84    C83       1.39448      .   S
    C89    C88       1.39703      .   S
    C91    C86       1.39324      .   S
    C150   C151      1.39607      .   S
    C77    C78       1.39793      .   S
    C77    C76       1.39442      .   S
    C80    C81       1.39678      .   S
    H59    C154      1.08730      .   S
    H60    C156      1.08798      .   S
    C157   C156      1.39336      .   S
    C157   C158      1.39579      .   S
    O193   C158      1.39476      .   S
    O193   C161      1.39242  1_545   S
    C78    C79       1.39348      .   S
    C154   C153      1.39366      .   S
    C162   C161      1.40007      .   S
    C162   C163      1.39400      .   S
    H9     C76       1.08949      .   S
    H65    C163      1.08963      .   S
    C156   C155      1.39684      .   S
    C76    C75       1.39598      .   S
    C158   C159      1.39446      .   S
    C161   C166      1.39315      .   S
    C88    H17       1.08962      .   S
    C88    C87       1.39370      .   S
    C163   C164      1.39705      .   S
    C86    C87       1.39975      .   S
    C86    O175      1.39239      .   S
    C83    O175      1.39482      .   S
    C83    C82       1.39586      .   S
    C151   H57       1.08943      .   S
    C151   C152      1.39438      .   S
    C81    C82       1.39337      .   S
    C81    H12       1.08796      .   S
    C87    H16       1.08925      .   S
    C79    H11       1.08717  1_545   S
    C79    C74       1.40182      .   S
    C153   C152      1.39793      .   S
    C153   O192      1.39222      .   S
    C82    H13       1.08951      .   S
    C155   O192      1.39152      .   S
    C155   C160      1.39470      .   S
    C152   H58       1.08768      .   S
    C75    C74       1.40098      .   S
    C75    H8        1.08719      .   S
    C166   H67       1.08713  1_565   S
    C166   C165      1.40338      .   S
    C164   H66       1.08750      .   S
    C164   C165      1.40041      .   S
    C159   C160      1.39631      .   S
    C159   H62       1.08902      .   S
    C74    C73       1.50279      .   S
    C165   C167      1.50329      .   S
    C160   H63       1.08965      .   S
    C73    O173      1.27537  1_545   S
    C73    O172      1.27340      .   S
    C167   O194      1.27696  1_565   S
    C167   O195      1.27301  1_455   S
    O173   Zn2       2.08864      .   S
    O172   Zn0       2.06483  1_655   S
    O194   Zn0       2.07837      .   S
    O195   Zn2       2.06248      .   S
    H7     C72       1.08948      .   S
    H6     C71       1.08637      .   S
    C72    C71       1.38881      .   S
    C72    N168      1.34797      .   S
    C71    C70       1.40532      .   S
    H37    C119      1.08691      .   S
    H36    C118      1.08941      .   S
    N168   Zn0       2.07987      .   S
    N168   C68       1.34919      .   S
    C119   C118      1.38841      .   S
    C119   C120      1.40540      .   S
    C118   N170      1.34910      .   S
    Zn0    O183      2.07017      .   S
    Zn0    O185      2.09258      .   S
    C70    C120      1.48526      .   S
    C70    C69       1.40538      .   S
    Zn2    N170      2.07991      .   S
    Zn2    O182      2.08357      .   S
    Zn2    O184      2.07029  1_655   S
    C120   C121      1.40525      .   S
    C68    C69       1.38833      .   S
    C68    H4        1.08828      .   S
    N170   C122      1.34786      .   S
    C69    H5        1.08692      .   S
    C121   C122      1.38876      .   S
    C121   H38       1.08645      .   S
    C122   H39       1.08946      .   S
    O183   C117      1.26702  1_455   S
    O182   C117      1.27673  1_565   S
    O185   C123      1.27562  1_545   S
    O184   C123      1.27348      .   S
    C117   C115      1.50416      .   S
    C123   C124      1.50353      .   S
    H31    C110      1.08964      .   S
    H26    C102      1.08879      .   S
    H45    C132      1.08951      .   S
    H40    C125      1.08797      .   S
    H30    C109      1.08894      .   S
    C110   C109      1.39626      .   S
    C110   C105      1.39456      .   S
    C115   C114      1.40040      .   S
    C115   C116      1.40378      .   S
    H34    C114      1.08751      .   S
    O180   C105      1.39210      .   S
    O180   C103      1.39298      .   S
    H35    C116      1.08718  1_565   S
    C124   C125      1.40096      .   S
    C124   C129      1.40221      .   S
    H48    C137      1.08817      .   S
    C109   C108      1.39448      .   S
    C114   C113      1.39709      .   S
    C116   C111      1.39332      .   S
    C125   C126      1.39613      .   S
    C102   C103      1.39804      .   S
    C102   C101      1.39427      .   S
    C105   C106      1.39693      .   S
    H43    C129      1.08732  1_545   S
    C132   C131      1.39359      .   S
    C132   C133      1.39604      .   S
    H44    C131      1.08805      .   S
    O187   C133      1.39473      .   S
    O187   C136      1.39250      .   S
    C103   C104      1.39411      .   S
    C129   C128      1.39412      .   S
    C137   C136      1.40035      .   S
    C137   C138      1.39416      .   S
    H25    C101      1.08948      .   S
    H49    C138      1.08960      .   S
    C131   C130      1.39685      .   S
    C101   C100      1.39604      .   S
    C133   C134      1.39432      .   S
    C113   H33       1.08963      .   S
    C113   C112      1.39390      .   S
    C136   C141      1.39339      .   S
    C111   C112      1.40013      .   S
    C111   O181      1.39257  1_545   S
    C138   C139      1.39716      .   S
    C108   O181      1.39474      .   S
    C108   C107      1.39597      .   S
    C126   H41       1.07443      .   S
    C126   C127      1.39427      .   S
    C106   H28       1.08766      .   S
    C106   C107      1.39359      .   S
    C112   H32       1.08874      .   S
    C104   H27       1.08749      .   S
    C104   C99       1.40225      .   S
    C128   C127      1.39803      .   S
    C128   O186      1.39235  1_565   S
    C107   H29       1.08961      .   S
    C130   O186      1.39177      .   S
    C130   C135      1.39464      .   S
    C127   H42       1.08771      .   S
    C100   C99       1.40100      .   S
    C100   H24       1.08807      .   S
    C141   H51       1.08732      .   S
    C141   C140      1.40378      .   S
    C139   H50       1.08747      .   S
    C139   C140      1.40041      .   S
    C134   C135      1.39634      .   S
    C134   H46       1.08901      .   S
    C99    C98       1.50350      .   S
    C140   C142      1.50416      .   S
    C135   H47       1.08950      .   S
    C98    O178      1.27347      .   S
    C98    O179      1.27576      .   S
    C142   O188      1.27687      .   S
    C142   O189      1.26693  1_655   S
    O178   Zn1       2.07046  1_455   S
    O188   Zn1       2.08358      .   S
    H23    C97       1.08944      .   S
    H22    C96       1.08625  1_565   S
    H53    C144      1.08689      .   S
    C97    C96       1.38877      .   S
    C97    N169      1.34775      .   S
    C96    C95       1.40525      .   S
    H52    C143      1.08940      .   S
    C144   C143      1.38835      .   S
    N169   Zn1       2.07993      .   S
    Zn0    Zn2       2.84411  1_445   S
    Zn1    Zn3       2.84374  1_656   S
