# CIF file generated by openbabel 2.4.90, see http://openbabel.sf.net
data_I
_chemical_name_common ''
_cell_length_a 13.254
_cell_length_b 13.186
_cell_length_c 13.156
_cell_angle_alpha 93.741
_cell_angle_beta 96.041
_cell_angle_gamma 83.687
_space_group_name_H-M_alt 'P 1'
_space_group_name_Hall 'P 1'
loop_
    _symmetry_equiv_pos_as_xyz
    x,y,z
loop_
    _atom_site_label
    _atom_site_type_symbol
    _atom_site_fract_x
    _atom_site_fract_y
    _atom_site_fract_z
    _atom_site_occupancy
    C0      C    0.01008   0.06045   0.73149   1.000
    C1      C    0.78332   0.10499   0.74930   1.000
    C2      C    0.48724   0.73469   0.06048   1.000
    C3      C    0.71435   0.75126   0.10495   1.000
    C4      C    0.98761   0.93957   0.26909   1.000
    C5      C    0.21431   0.89495   0.25066   1.000
    C6      C    0.51001   0.26467   0.93802   1.000
    C7      C    0.28330   0.24796   0.89453   1.000
