# CIF file generated by openbabel 2.4.90, see http://openbabel.sf.net
data_I
_chemical_name_common ''
_cell_length_a 13.254
_cell_length_b 13.186
_cell_length_c 13.156
_cell_angle_alpha 93.741
_cell_angle_beta 96.041
_cell_angle_gamma 83.687
_space_group_name_H-M_alt 'P 1'
_space_group_name_Hall 'P 1'
loop_
    _symmetry_equiv_pos_as_xyz
    x,y,z
loop_
    _atom_site_label
    _atom_site_type_symbol
    _atom_site_fract_x
    _atom_site_fract_y
    _atom_site_fract_z
    _atom_site_occupancy
    C0      C    0.16940   0.15982   0.72472   1.000
    C1      C    0.32513   0.72480   0.15899   1.000
    C2      C    0.82667   0.84049   0.27522   1.000
    C3      C    0.67124   0.27516   0.84001   1.000
    C4      C    0.39532   0.18434   0.73128   1.000
    C5      C    0.54185   0.11723   0.64042   1.000
    C6      C    0.33776   0.93660   0.44181   1.000
    C7      C    0.19972   0.01309   0.54080   1.000
    C8      C    0.97523   0.21696   0.58960   1.000
    C9      C    0.89889   0.35805   0.48368   1.000
    C10     C    0.15414   0.52449   0.60155   1.000
    C11     C    0.21998   0.37431   0.70294   1.000
    C12     C    0.06253   0.86278   0.70156   1.000
    C13     C    0.95956   0.71871   0.70180   1.000
    C14     C    0.69998   0.93153   0.76872   1.000
    C15     C    0.09950   0.73219   0.18143   1.000
    C16     C    0.95385   0.64044   0.11582   1.000
    C17     C    0.15968   0.44026   0.93666   1.000
    C18     C    0.29695   0.53992   0.01184   1.000
    C19     C    0.52164   0.59119   0.21595   1.000
    C20     C    0.59952   0.48632   0.35730   1.000
    C21     C    0.34126   0.59908   0.52365   1.000
    C22     C    0.27441   0.70004   0.37368   1.000
    C23     C    0.43677   0.70332   0.86167   1.000
    C24     C    0.54155   0.70162   0.71785   1.000
    C25     C    0.79852   0.77005   0.93194   1.000
    C26     C    0.60114   0.81628   0.26890   1.000
    C27     C    0.45478   0.88296   0.36034   1.000
    C28     C    0.65895   0.06362   0.55870   1.000
    C29     C    0.79694   0.98730   0.45946   1.000
    C30     C    0.02204   0.78267   0.40892   1.000
    C31     C    0.09902   0.64122   0.51405   1.000
    C32     C    0.84169   0.47635   0.39955   1.000
    C33     C    0.77577   0.62639   0.29819   1.000
    C34     C    0.93581   0.13778   0.30030   1.000
    C35     C    0.03927   0.28151   0.29936   1.000
    C36     C    0.29762   0.06784   0.23080   1.000
    C37     C    0.89723   0.26711   0.81798   1.000
    C38     C    0.04299   0.35845   0.88300   1.000
    C39     C    0.83742   0.55820   0.06380   1.000
    C40     C    0.70005   0.45891   0.98826   1.000
    C41     C    0.47493   0.40718   0.78190   1.000
    C42     C    0.39707   0.51176   0.64031   1.000
    C43     C    0.65782   0.40255   0.47619   1.000
    C44     C    0.72398   0.30072   0.62589   1.000
    C45     C    0.56164   0.29472   0.13674   1.000
    C46     C    0.45775   0.29580   0.28092   1.000
    C47     C    0.19946   0.22899   0.06782   1.000
    C48     C    0.38500   0.13120   0.66508   1.000
    C49     C    0.46795   0.09164   0.61335   1.000
    C50     C    0.45518   0.02078   0.52979   1.000
    C51     C    0.35620   0.99171   0.50442   1.000
    C52     C    0.27684   0.03457   0.55940   1.000
    C53     C    0.01319   0.28613   0.58884   1.000
    C54     C    0.97069   0.36678   0.53000   1.000
    C55     C    0.01968   0.45623   0.53094   1.000
    C56     C    0.11131   0.45817   0.59476   1.000
    C57     C    0.14999   0.37475   0.65120   1.000
    C58     C    0.01008   0.06045   0.73149   1.000
    C59     C    0.94034   0.97797   0.72928   1.000
    C60     C    0.98231   0.87676   0.71468   1.000
    C61     C    0.92386   0.79570   0.71624   1.000
    C62     C    0.82135   0.81395   0.73569   1.000
    C63     C    0.77930   0.91534   0.75259   1.000
    C64     C    0.83682   0.99754   0.74719   1.000
    C65     C    0.78332   0.10499   0.74930   1.000
    C66     C    0.81229   0.61943   0.73607   1.000
    C67     C    0.11044   0.66545   0.12890   1.000
    C68     C    0.02799   0.61326   0.09023   1.000
    C69     C    0.04147   0.52902   0.02023   1.000
    C70     C    0.14073   0.50348   0.99109   1.000
    C71     C    0.21961   0.55886   0.03321   1.000
    C72     C    0.48340   0.58960   0.28517   1.000
    C73     C    0.52678   0.53130   0.36600   1.000
    C74     C    0.47744   0.53106   0.45555   1.000
    C75     C    0.38457   0.59327   0.45730   1.000
    C76     C    0.34515   0.64927   0.37380   1.000
    C77     C    0.48724   0.73469   0.06048   1.000
    C78     C    0.55760   0.73161   0.97764   1.000
    C79     C    0.51689   0.71627   0.87608   1.000
    C80     C    0.57635   0.71669   0.79506   1.000
    C81     C    0.67867   0.73607   0.81364   1.000
    C82     C    0.71940   0.75390   0.91535   1.000
    C83     C    0.66105   0.74927   0.99746   1.000
    C84     C    0.71435   0.75126   0.10495   1.000
    C85     C    0.69185   0.73240   0.61850   1.000
    C86     C    0.61154   0.86927   0.33524   1.000
    C87     C    0.52869   0.90863   0.38722   1.000
    C88     C    0.54153   0.97943   0.47083   1.000
    C89     C    0.64052   0.00000   0.49607   1.000
    C90     C    0.71981   0.96582   0.44090   1.000
    C91     C    0.98384   0.71371   0.41014   1.000
    C92     C    0.02666   0.63289   0.46860   1.000
    C93     C    0.97728   0.54376   0.46838   1.000
    C94     C    0.88501   0.54228   0.40555   1.000
    C95     C    0.84616   0.62578   0.34932   1.000
    C96     C    0.98761   0.93957   0.26909   1.000
    C97     C    0.05737   0.02218   0.27175   1.000
    C98     C    0.01590   0.12352   0.28676   1.000
    C99     C    0.07458   0.20440   0.28475   1.000
    C100    C    0.17685   0.18581   0.26450   1.000
    C101    C    0.21845   0.08430   0.24750   1.000
    C102    C    0.16074   0.00234   0.25328   1.000
    C103    C    0.21431   0.89495   0.25066   1.000
    C104    C    0.18737   0.38032   0.26379   1.000
    C105    C    0.88637   0.33366   0.87067   1.000
    C106    C    0.96890   0.38565   0.90959   1.000
    C107    C    0.95553   0.46971   0.97982   1.000
    C108    C    0.85634   0.49519   0.00000   1.000
    C109    C    0.77738   0.44001   0.96683   1.000
    C110    C    0.51354   0.40927   0.71300   1.000
    C111    C    0.47033   0.46759   0.63215   1.000
    C112    C    0.52041   0.46874   0.54318   1.000
    C113    C    0.61381   0.40735   0.54194   1.000
    C114    C    0.65290   0.35102   0.62530   1.000
    C115    C    0.51001   0.26467   0.93802   1.000
    C116    C    0.44011   0.26730   0.02115   1.000
    C117    C    0.48145   0.28198   0.12256   1.000
    C118    C    0.42240   0.28126   0.20385   1.000
    C119    C    0.31986   0.26251   0.18571   1.000
    C120    C    0.27867   0.24489   0.08416   1.000
    C121    C    0.33668   0.24961   0.00186   1.000
    C122    C    0.28330   0.24796   0.89453   1.000
    C123    C    0.30745   0.26697   0.38050   1.000
    C124    C    0.75080   0.72749   0.72792   1.000
    C125    C    0.24797   0.27171   0.27165   1.000
    C126    C    0.29013   0.10413   0.63848   1.000
    C127    C    0.10225   0.28913   0.64853   1.000
    C128    C    0.20559   0.63857   0.10203   1.000
    C129    C    0.39318   0.64775   0.28805   1.000
    C130    C    0.70641   0.89640   0.36173   1.000
    C131    C    0.89422   0.71112   0.35133   1.000
    C132    C    0.79125   0.36054   0.89770   1.000
    C133    C    0.60414   0.35174   0.71056   1.000
    C134    C    0.99492   0.14242   0.78397   1.000
    C135    C    0.08896   0.04038   0.67999   1.000
    C136    C    0.78223   0.15534   0.67154   1.000
    C137    C    0.73822   0.13421   0.83020   1.000
    C138    C    0.50260   0.78686   0.14245   1.000
    C139    C    0.40824   0.68375   0.04040   1.000
    C140    C    0.71505   0.67381   0.15553   1.000
    C141    C    0.76027   0.83125   0.13300   1.000
    C142    C    0.00430   0.85733   0.21752   1.000
    C143    C    0.90770   0.95962   0.31919   1.000
    C144    C    0.21734   0.84486   0.32887   1.000
    C145    C    0.25786   0.86557   0.16891   1.000
    C146    C    0.49717   0.20909   0.85792   1.000
    C147    C    0.58624   0.31971   0.95607   1.000
    C148    C    0.28469   0.32474   0.84348   1.000
    C149    C    0.23547   0.16910   0.86614   1.000
    C150    C    0.88401   0.61785   0.81770   1.000
    C151    C    0.86235   0.58726   0.65215   1.000
    C152    C    0.75062   0.54624   0.74711   1.000
    C153    C    0.61865   0.81300   0.61350   1.000
    C154    C    0.64433   0.64707   0.58730   1.000
    C155    C    0.75563   0.74254   0.54643   1.000
    C156    C    0.11569   0.38217   0.18210   1.000
    C157    C    0.13757   0.41267   0.34785   1.000
    C158    C    0.24930   0.45339   0.25285   1.000
    C159    C    0.38032   0.18633   0.38623   1.000
    C160    C    0.35565   0.35229   0.40907   1.000
    C161    C    0.24440   0.25776   0.45352   1.000
    O162    O    0.84688   0.52670   0.03190   1.000
    O163    O    0.81686   0.46760   0.98342   1.000
    O164    O    0.90593   0.48245   0.98991   1.000
    O165    O    0.38839   0.25845   0.01151   1.000
    O166    O    0.30768   0.24725   0.04301   1.000
    O167    O    0.30999   0.24879   0.94820   1.000
    O168    O    0.25828   0.54939   0.02253   1.000
    O169    O    0.03473   0.57114   0.05523   1.000
    O170    O    0.99850   0.49937   0.00003   1.000
    O171    O    0.09110   0.51625   0.00566   1.000
    O172    O    0.46078   0.27464   0.07186   1.000
    O173    O    0.47506   0.26598   0.97959   1.000
    O174    O    0.21260   0.59872   0.06762   1.000
    O175    O    0.18017   0.53117   0.01215   1.000
    O176    O    0.44774   0.70922   0.05044   1.000
    O177    O    0.36668   0.70427   0.09970   1.000
    O178    O    0.49492   0.76078   0.10147   1.000
    O179    O    0.52242   0.73315   0.01906   1.000
    O180    O    0.23906   0.23694   0.07599   1.000
    O181    O    0.29927   0.25370   0.13494   1.000
    O182    O    0.99092   0.62685   0.10303   1.000
    O183    O    0.06921   0.63935   0.10957   1.000
    O184    O    0.15801   0.65201   0.11547   1.000
    O185    O    0.26536   0.68168   0.13051   1.000
    O186    O    0.73731   0.79126   0.11898   1.000
    O187    O    0.71470   0.71254   0.13024   1.000
    O188    O    0.68770   0.75026   0.05121   1.000
    O189    O    0.52154   0.28835   0.12965   1.000
    O190    O    0.45193   0.28162   0.16321   1.000
    O191    O    0.10497   0.69882   0.15517   1.000
    O192    O    0.79347   0.83587   0.20411   1.000
    O193    O    0.29149   0.79519   0.16395   1.000
    O194    O    0.35915   0.68627   0.22352   1.000
    O195    O    0.23608   0.88026   0.20979   1.000
    O196    O    0.15153   0.38124   0.22295   1.000
    O197    O    0.37113   0.27189   0.19478   1.000
    O198    O    0.28392   0.26711   0.22868   1.000
    O199    O    0.44008   0.28853   0.24239   1.000
    O200    O    0.50252   0.59039   0.25056   1.000
    O201    O    0.99596   0.89845   0.24331   1.000
    O202    O    0.25803   0.07607   0.23915   1.000
    O203    O    0.18960   0.04332   0.25039   1.000
    O204    O    0.19765   0.13506   0.25600   1.000
    O205    O    0.18752   0.94864   0.25197   1.000
    O206    O    0.21582   0.86990   0.28977   1.000
    O207    O    0.21834   0.41686   0.25832   1.000
    O208    O    0.10906   0.01226   0.26252   1.000
    O209    O    0.21767   0.32602   0.26772   1.000
    O210    O    0.16247   0.39650   0.30582   1.000
    O211    O    0.21241   0.22876   0.26808   1.000
    O212    O    0.12572   0.19510   0.27463   1.000
    O213    O    0.60634   0.84278   0.30207   1.000
    O214    O    0.02249   0.98088   0.27042   1.000
    O215    O    0.94766   0.94960   0.29414   1.000
    O216    O    0.27771   0.26934   0.32608   1.000
    O217    O    0.03664   0.07285   0.27926   1.000
    O218    O    0.86719   0.90005   0.29721   1.000
    O219    O    0.86044   0.77580   0.31328   1.000
    O220    O    0.76654   0.86844   0.31848   1.000
    O221    O    0.04524   0.16396   0.28576   1.000
    O222    O    0.05693   0.24296   0.29206   1.000
    O223    O    0.43829   0.61867   0.28661   1.000
    O224    O    0.50509   0.56045   0.32559   1.000
    O225    O    0.97586   0.13065   0.29353   1.000
    O226    O    0.36917   0.64851   0.33093   1.000
    O227    O    0.81097   0.62608   0.32376   1.000
    O228    O    0.65898   0.88284   0.34849   1.000
    O229    O    0.57012   0.88895   0.36123   1.000
    O230    O    0.87019   0.66845   0.35033   1.000
    O231    O    0.86559   0.58403   0.37744   1.000
    O232    O    0.93903   0.71242   0.38074   1.000
    O233    O    0.56315   0.50881   0.36165   1.000
    O234    O    0.49174   0.89579   0.37378   1.000
    O235    O    0.71311   0.93111   0.40132   1.000
    O236    O    0.50211   0.53118   0.41078   1.000
    O237    O    0.30978   0.67465   0.37374   1.000
    O238    O    0.36486   0.62127   0.41555   1.000
    O239    O    0.34388   0.22665   0.38337   1.000
    O240    O    0.33155   0.30963   0.39479   1.000
    O241    O    0.27593   0.26237   0.41701   1.000
    O242    O    0.53511   0.94403   0.42903   1.000
    O243    O    0.86335   0.50931   0.40255   1.000
    O244    O    0.93115   0.54302   0.43697   1.000
    O245    O    0.00294   0.74819   0.40953   1.000
    O246    O    0.00525   0.67330   0.43937   1.000
    O247    O    0.75837   0.97656   0.45018   1.000
    O248    O    0.68016   0.98291   0.46849   1.000
    O249    O    0.34698   0.96415   0.47312   1.000
    O250    O    0.43101   0.56217   0.45643   1.000
    O251    O    0.49892   0.49990   0.49937   1.000
    O252    O    0.36292   0.59618   0.49048   1.000
    O253    O    0.00197   0.58833   0.46849   1.000
    O254    O    0.99848   0.49999   0.49966   1.000
    O255    O    0.06284   0.63706   0.49133   1.000
    O256    O    0.59103   0.98971   0.48345   1.000
    O257    O    0.49836   0.00011   0.50031   1.000
    O258    O    0.63582   0.40495   0.50907   1.000
    O259    O    0.93479   0.36242   0.50684   1.000
    O260    O    0.64974   0.03181   0.52739   1.000
    O261    O    0.40569   0.00625   0.51711   1.000
    O262    O    0.31652   0.01314   0.53191   1.000
    O263    O    0.46157   0.05621   0.57157   1.000
    O264    O    0.99518   0.41150   0.53047   1.000
    O265    O    0.99194   0.32646   0.55942   1.000
    O266    O    0.06550   0.45720   0.56285   1.000
    O267    O    0.23828   0.02383   0.55010   1.000
    O268    O    0.56711   0.43805   0.54256   1.000
    O269    O    0.63335   0.37919   0.58362   1.000
    O270    O    0.49537   0.46817   0.58767   1.000
    O271    O    0.72374   0.73747   0.58247   1.000
    O272    O    0.28348   0.06935   0.59894   1.000
    O273    O    0.66809   0.68974   0.60290   1.000
    O274    O    0.99421   0.25155   0.58922   1.000
    O275    O    0.05772   0.28763   0.61869   1.000
    O276    O    0.13272   0.49133   0.59816   1.000
    O277    O    0.13065   0.41646   0.62298   1.000
    O278    O    0.50490   0.10443   0.62689   1.000
    O279    O    0.42648   0.11142   0.63922   1.000
    O280    O    0.65525   0.77270   0.61600   1.000
    O281    O    0.72133   0.72995   0.67321   1.000
    O282    O    0.68844   0.32587   0.62560   1.000
    O283    O    0.62852   0.35138   0.66793   1.000
    O284    O    0.43370   0.48967   0.63623   1.000
    O285    O    0.49193   0.43843   0.67258   1.000
    O286    O    0.33756   0.11766   0.65178   1.000
    O287    O    0.22976   0.13197   0.68160   1.000
    O288    O    0.12612   0.33194   0.64987   1.000
    O289    O    0.13583   0.22447   0.68663   1.000
    O290    O    0.18499   0.37453   0.67707   1.000
    O291    O    0.83732   0.60334   0.69411   1.000
    O292    O    0.39016   0.15777   0.69818   1.000
    O293    O    0.78277   0.13017   0.71042   1.000
    O294    O    0.12918   0.10010   0.70236   1.000
    O295    O    0.04952   0.05041   0.70574   1.000
    O296    O    0.02242   0.86977   0.70812   1.000
    O297    O    0.94171   0.75720   0.70902   1.000
    O298    O    0.55884   0.38051   0.71178   1.000
    O299    O    0.63769   0.31345   0.77529   1.000
    O300    O    0.49423   0.40823   0.74745   1.000
    O301    O    0.95308   0.83623   0.71546   1.000
    O302    O    0.96132   0.92736   0.72198   1.000
    O303    O    0.87261   0.80482   0.72597   1.000
    O304    O    0.55895   0.70915   0.75646   1.000
    O305    O    0.20243   0.16446   0.79543   1.000
    O306    O    0.78608   0.77072   0.73181   1.000
    O307    O    0.78155   0.67346   0.73200   1.000
    O308    O    0.71474   0.73178   0.77078   1.000
    O309    O    0.97521   0.01921   0.73039   1.000
    O310    O    0.88858   0.98776   0.73824   1.000
    O311    O    0.00250   0.10143   0.75773   1.000
    O312    O    0.80033   0.86464   0.74414   1.000
    O313    O    0.78146   0.58283   0.74159   1.000
    O314    O    0.84815   0.61864   0.77689   1.000
    O315    O    0.81007   0.05127   0.74825   1.000
    O316    O    0.80806   0.95644   0.74989   1.000
    O317    O    0.76077   0.11960   0.78975   1.000
    O318    O    0.73964   0.92343   0.76066   1.000
    O319    O    0.62751   0.72638   0.80435   1.000
    O320    O    0.54662   0.71648   0.83557   1.000
    O321    O    0.69903   0.74499   0.86450   1.000
    O322    O    0.89180   0.30038   0.84433   1.000
    O323    O    0.70473   0.20468   0.83511   1.000
    O324    O    0.73125   0.31785   0.86886   1.000
    O325    O    0.62874   0.29743   0.89804   1.000
    O326    O    0.28399   0.28635   0.86901   1.000
    O327    O    0.50359   0.23688   0.89797   1.000
    O328    O    0.47683   0.70980   0.86888   1.000
    O329    O    0.25938   0.20853   0.88034   1.000
    O330    O    0.83881   0.34710   0.88419   1.000
    O331    O    0.92764   0.35966   0.89013   1.000
    O332    O    0.53724   0.72394   0.92686   1.000
    O333    O    0.00595   0.37205   0.89630   1.000
    O334    O    0.78431   0.40027   0.93227   1.000
    O335    O    0.96222   0.42768   0.94471   1.000
    O336    O    0.75896   0.76198   0.92365   1.000
    O337    O    0.69022   0.75158   0.95641   1.000
    O338    O    0.15020   0.47187   0.96388   1.000
    O339    O    0.54812   0.29219   0.94705   1.000
    O340    O    0.73872   0.44946   0.97755   1.000
    O341    O    0.60933   0.74044   0.98755   1.000
loop_
    _geom_bond_atom_site_label_1
    _geom_bond_atom_site_label_2
    _geom_bond_distance
    _geom_bond_site_symmetry_2
    _ccdc_geom_bond_type
    C108   O162      0.58420      .   S
    C39    O162      0.58420      .   S
    C108   O163      0.67917  1_554   S
    C109   O163      0.67917      .   S
    C108   O164      0.68494  1_554   S
    C107   O164      0.68494      .   S
    C121   O165      0.70486      .   S
    C116   O165      0.70486      .   S
    C121   O166      0.70033      .   S
    C120   O166      0.70033      .   S
    C121   O167      0.75565  1_554   S
    C122   O167      0.75565      .   S
    C18    O168      0.54485      .   S
    C71    O168      0.54485      .   S
    C69    O169      0.70206      .   S
    C68    O169      0.70206      .   S
    C69    O170      0.74259  1_455   S
    C107   O170      0.74259  1_556   S
    C69    O171      0.70407      .   S
    C70    O171      0.70407  1_556   S
    C116   O172      0.69883      .   S
    C117   O172      0.69883      .   S
    C116   O173      0.75114  1_554   S
    C115   O173      0.75114      .   S
    C71    O174      0.67585      .   S
    C128   O174      0.67585      .   S
    C71    O175      0.69399      .   S
    C70    O175      0.69399  1_556   S
    C139   O176      0.65016      .   S
    C77    O176      0.65016      .   S
    C139   O177      1.00759      .   S
    C1     O177      1.00759      .   S
    C77    O178      0.62557      .   S
    C138   O178      0.62557      .   S
    C77    O179      0.75148      .   S
    C78    O179      0.75148  1_556   S
    C47    O180      0.54486      .   S
    C120   O180      0.54486      .   S
    C120   O181      0.70193      .   S
    C119   O181      0.70193      .   S
    C68    O182      0.54400  1_455   S
    C16    O182      0.54400      .   S
    C68    O183      0.69444      .   S
    C67    O183      0.69444      .   S
    C128   O184      0.67460      .   S
    C67    O184      0.67460      .   S
    C128   O185      1.04875      .   S
    C1     O185      1.04875      .   S
    C84    O186      0.64461      .   S
    C141   O186      0.64461      .   S
    C84    O187      0.62672      .   S
    C140   O187      0.62672      .   S
    C84    O188      0.75639      .   S
    C83    O188      0.75639  1_556   S
    C117   O189      0.54454      .   S
    C45    O189      0.54454      .   S
    C117   O190      0.69559      .   S
    C118   O190      0.69559      .   S
    C67    O191      0.54472      .   S
    C15    O191      0.54472      .   S
    C141   O192      0.99215      .   S
    C2     O192      0.99215      .   S
    C1     O193      0.98571      .   S
    C145   O193      0.98571      .   S
    C1     O194      1.05238      .   S
    C129   O194      1.05238      .   S
    C145   O195      0.64559      .   S
    C103   O195      0.64559      .   S
    C156   O196      0.67852      .   S
    C104   O196      0.67852      .   S
    C119   O197      0.70055      .   S
    C118   O197      0.70055      .   S
    C119   O198      0.77208      .   S
    C125   O198      0.77208      .   S
    C118   O199      0.54285      .   S
    C46    O199      0.54285      .   S
    C19    O200      0.54512      .   S
    C72    O200      0.54512      .   S
    C142   O201      0.62613  1_455   S
    C96    O201      0.62613      .   S
    C36    O202      0.54508      .   S
    C101   O202      0.54508      .   S
    C101   O203      0.70063      .   S
    C102   O203      0.70063      .   S
    C101   O204      0.70183      .   S
    C100   O204      0.70183      .   S
    C103   O205      0.75634      .   S
    C102   O205      0.75634  1_545   S
    C103   O206      0.62664      .   S
    C144   O206      0.62664      .   S
    C158   O207      0.67816      .   S
    C104   O207      0.67816      .   S
    C102   O208      0.70494      .   S
    C97    O208      0.70494      .   S
    C104   O209      0.78353      .   S
    C125   O209      0.78353      .   S
    C104   O210      0.68387      .   S
    C157   O210      0.68387      .   S
    C100   O211      0.77180      .   S
    C125   O211      0.77180      .   S
    C100   O212      0.70050      .   S
    C99    O212      0.70050      .   S
    C26    O213      0.54433      .   S
    C86    O213      0.54433      .   S
    C96    O214      0.75037  1_655   S
    C97    O214      0.75037  1_545   S
    C96    O215      0.64974      .   S
    C143   O215      0.64974      .   S
    C125   O216      0.78091      .   S
    C123   O216      0.78091      .   S
    C97    O217      0.69885      .   S
    C98    O217      0.69885      .   S
    C2     O218      1.00966      .   S
    C143   O218      1.00966      .   S
    C2     O219      1.05027      .   S
    C131   O219      1.05027      .   S
    C2     O220      1.04800      .   S
    C130   O220      1.04800      .   S
    C99    O221      0.69519      .   S
    C98    O221      0.69519      .   S
    C99    O222      0.54285      .   S
    C35    O222      0.54285      .   S
    C72    O223      0.67516      .   S
    C129   O223      0.67516      .   S
    C72    O224      0.69517      .   S
    C73    O224      0.69517      .   S
    C98    O225      0.54440  1_455   S
    C34    O225      0.54440      .   S
    C129   O226      0.67523      .   S
    C76    O226      0.67523      .   S
    C33    O227      0.54538      .   S
    C95    O227      0.54538      .   S
    C86    O228      0.67474      .   S
    C130   O228      0.67474      .   S
    C86    O229      0.69446      .   S
    C87    O229      0.69446      .   S
    C95    O230      0.67513      .   S
    C131   O230      0.67513      .   S
    C95    O231      0.69389      .   S
    C94    O231      0.69389      .   S
    C131   O232      0.67507      .   S
    C91    O232      0.67507      .   S
    C20    O233      0.54385      .   S
    C73    O233      0.54385      .   S
    C27    O234      0.54398      .   S
    C87    O234      0.54398      .   S
    C130   O235      0.67578      .   S
    C90    O235      0.67578      .   S
    C73    O236      0.70333      .   S
    C74    O236      0.70333      .   S
    C22    O237      0.54522      .   S
    C76    O237      0.54522      .   S
    C76    O238      0.69375      .   S
    C75    O238      0.69375      .   S
    C123   O239      0.67797      .   S
    C159   O239      0.67797      .   S
    C123   O240      0.68322      .   S
    C160   O240      0.68322      .   S
    C123   O241      0.67867      .   S
    C161   O241      0.67867      .   S
    C87    O242      0.70212      .   S
    C88    O242      0.70212      .   S
    C32    O243      0.54389      .   S
    C94    O243      0.54389      .   S
    C94    O244      0.70171      .   S
    C93    O244      0.70171      .   S
    C30    O245      0.54503      .   S
    C91    O245      0.54503  1_655   S
    C91    O246      0.69486  1_655   S
    C92    O246      0.69486      .   S
    C90    O247      0.54476      .   S
    C29    O247      0.54476      .   S
    C90    O248      0.67972      .   S
    C89    O248      0.67972  1_545   S
    C6     O249      0.54424      .   S
    C51    O249      0.54424      .   S
    C74    O250      0.70175      .   S
    C75    O250      0.70175      .   S
    C74    O251      0.74350      .   S
    C112   O251      0.74350      .   S
    C75    O252      0.54414      .   S
    C21    O252      0.54414      .   S
    C93    O253      0.70320  1_655   S
    C92    O253      0.70320      .   S
    C93    O254      0.74318      .   S
    C55    O254      0.74318  1_455   S
    C92    O255      0.54388      .   S
    C31    O255      0.54388      .   S
    C88    O256      0.68554      .   S
    C89    O256      0.68554  1_545   S
    C88    O257      0.74218  1_565   S
    C50    O257      0.74218      .   S
    C43    O258      0.54393      .   S
    C113   O258      0.54393      .   S
    C9     O259      0.54384      .   S
    C54    O259      0.54384      .   S
    C89    O260      0.58201      .   S
    C28    O260      0.58201      .   S
    C51    O261      0.70381  1_565   S
    C50    O261      0.70381      .   S
    C51    O262      0.69373  1_565   S
    C52    O262      0.69373      .   S
    C50    O263      0.70208      .   S
    C49    O263      0.70208      .   S
    C54    O264      0.70320      .   S
    C55    O264      0.70320  1_455   S
    C54    O265      0.69485      .   S
    C53    O265      0.69485  1_455   S
    C55    O266      0.70174      .   S
    C56    O266      0.70174      .   S
    C7     O267      0.54472      .   S
    C52    O267      0.54472      .   S
    C113   O268      0.70184      .   S
    C112   O268      0.70184      .   S
    C113   O269      0.69370      .   S
    C114   O269      0.69370      .   S
    C112   O270      0.70336      .   S
    C111   O270      0.70336      .   S
    C155   O271      0.67851      .   S
    C85    O271      0.67851      .   S
    C52    O272      0.67586      .   S
    C126   O272      0.67586      .   S
    C154   O273      0.68419      .   S
    C85    O273      0.68419      .   S
    C53    O274      0.54510  1_455   S
    C8     O274      0.54510      .   S
    C53    O275      0.67504      .   S
    C127   O275      0.67504      .   S
    C56    O276      0.54392      .   S
    C10    O276      0.54392      .   S
    C56    O277      0.69399      .   S
    C57    O277      0.69399      .   S
    C49    O278      0.54397      .   S
    C5     O278      0.54397      .   S
    C49    O279      0.69447      .   S
    C48    O279      0.69447      .   S
    C153   O280      0.67898      .   S
    C85    O280      0.67898      .   S
    C85    O281      0.78282      .   S
    C124   O281      0.78282      .   S
    C114   O282      0.54528      .   S
    C44    O282      0.54528      .   S
    C114   O283      0.67559      .   S
    C133   O283      0.67559      .   S
    C111   O284      0.54384      .   S
    C42    O284      0.54384      .   S
    C111   O285      0.69505      .   S
    C110   O285      0.69505      .   S
    C126   O286      0.67466      .   S
    C48    O286      0.67466      .   S
    C126   O287      1.04903      .   S
    C0     O287      1.04903      .   S
    C127   O288      0.67517      .   S
    C57    O288      0.67517      .   S
    C127   O289      1.04951      .   S
    C0     O289      1.04951      .   S
    C57    O290      0.54553      .   S
    C11    O290      0.54553      .   S
    C151   O291      0.68377      .   S
    C66    O291      0.68377      .   S
    C48    O292      0.54422      .   S
    C4     O292      0.54422      .   S
    C136   O293      0.62667      .   S
    C65    O293      0.62667      .   S
    C135   O294      1.00992      .   S
    C0     O294      1.00992      .   S
    C135   O295      0.64941      .   S
    C58    O295      0.64941      .   S
    C12    O296      0.54447      .   S
    C60    O296      0.54447  1_655   S
    C13    O297      0.54283      .   S
    C61    O297      0.54283      .   S
    C133   O298      0.67510      .   S
    C110   O298      0.67510      .   S
    C133   O299      1.05110      .   S
    C3     O299      1.05110      .   S
    C110   O300      0.54504      .   S
    C41    O300      0.54504      .   S
    C60    O301      0.69484      .   S
    C61    O301      0.69484      .   S
    C60    O302      0.69879      .   S
    C59    O302      0.69879      .   S
    C61    O303      0.70045      .   S
    C62    O303      0.70045      .   S
    C24    O304      0.54298      .   S
    C80    O304      0.54298      .   S
    C0     O305      0.98669      .   S
    C149   O305      0.98669      .   S
    C124   O306      0.77194      .   S
    C62    O306      0.77194      .   S
    C124   O307      0.78297      .   S
    C66    O307      0.78297      .   S
    C124   O308      0.77219      .   S
    C81    O308      0.77219      .   S
    C59    O309      0.74985  1_565   S
    C58    O309      0.74985  1_455   S
    C59    O310      0.70479      .   S
    C64    O310      0.70479      .   S
    C58    O311      0.62638      .   S
    C134   O311      0.62638  1_655   S
    C62    O312      0.70197      .   S
    C63    O312      0.70197      .   S
    C66    O313      0.67768      .   S
    C152   O313      0.67768      .   S
    C66    O314      0.67842      .   S
    C150   O314      0.67842      .   S
    C64    O315      0.75649  1_565   S
    C65    O315      0.75649      .   S
    C64    O316      0.70076      .   S
    C63    O316      0.70076      .   S
    C65    O317      0.64579      .   S
    C137   O317      0.64579      .   S
    C63    O318      0.54493      .   S
    C14    O318      0.54493      .   S
    C80    O319      0.70043      .   S
    C81    O319      0.70043      .   S
    C80    O320      0.69569      .   S
    C79    O320      0.69569      .   S
    C81    O321      0.70213      .   S
    C82    O321      0.70213      .   S
    C37    O322      0.54436      .   S
    C105   O322      0.54436      .   S
    C137   O323      0.98599      .   S
    C3     O323      0.98599      .   S
    C3     O324      1.04906      .   S
    C132   O324      1.04906      .   S
    C3     O325      1.00564      .   S
    C147   O325      1.00564      .   S
    C148   O326      0.62687      .   S
    C122   O326      0.62687      .   S
    C146   O327      0.62559      .   S
    C115   O327      0.62559      .   S
    C23    O328      0.54451      .   S
    C79    O328      0.54451      .   S
    C149   O329      0.64558      .   S
    C122   O329      0.64558      .   S
    C105   O330      0.67475      .   S
    C132   O330      0.67475      .   S
    C105   O331      0.69459      .   S
    C106   O331      0.69459      .   S
    C79    O332      0.69898      .   S
    C78    O332      0.69898      .   S
    C38    O333      0.54628      .   S
    C106   O333      0.54628  1_655   S
    C132   O334      0.67589      .   S
    C109   O334      0.67589      .   S
    C106   O335      0.70204      .   S
    C107   O335      0.70204      .   S
    C82    O336      0.54487      .   S
    C25    O336      0.54487      .   S
    C82    O337      0.70063      .   S
    C83    O337      0.70063      .   S
    C17    O338      0.54423      .   S
    C70    O338      0.54423      .   S
    C115   O339      0.65042      .   S
    C147   O339      0.65042      .   S
    C109   O340      0.54483      .   S
    C40    O340      0.54483      .   S
    C78    O341      0.70519      .   S
    C83    O341      0.70519      .   S
