# CIF file generated by openbabel 2.4.90, see http://openbabel.sf.net
data_I
_chemical_name_common ''
_cell_length_a 13.254
_cell_length_b 13.186
_cell_length_c 13.156
_cell_angle_alpha 93.741
_cell_angle_beta 96.041
_cell_angle_gamma 83.687
_space_group_name_H-M_alt 'P 1'
_space_group_name_Hall 'P 1'
loop_
    _symmetry_equiv_pos_as_xyz
    x,y,z
loop_
    _atom_site_label
    _atom_site_type_symbol
    _atom_site_fract_x
    _atom_site_fract_y
    _atom_site_fract_z
    _atom_site_occupancy
    Zr0     Zr   0.16940   0.15982   0.72472   1.000
    Zr1     Zr   0.32513   0.72480   0.15899   1.000
    Zr2     Zr   0.82667   0.84049   0.27522   1.000
    Zr3     Zr   0.67124   0.27516   0.84001   1.000
    Zr4     Zr   0.01008   0.06045   0.73149   1.000
    Zr5     Zr   0.78332   0.10499   0.74930   1.000
    Zr6     Zr   0.48724   0.73469   0.06048   1.000
    Zr7     Zr   0.71435   0.75126   0.10495   1.000
    Zr8     Zr   0.98761   0.93957   0.26909   1.000
    Zr9     Zr   0.21431   0.89495   0.25066   1.000
    Zr10    Zr   0.51001   0.26467   0.93802   1.000
    Zr11    Zr   0.28330   0.24796   0.89453   1.000
    Zr12    Zr   0.99492   0.14242   0.78397   1.000
    Zr13    Zr   0.08896   0.04038   0.67999   1.000
    Zr14    Zr   0.78223   0.15534   0.67154   1.000
    Zr15    Zr   0.73822   0.13421   0.83020   1.000
    Zr16    Zr   0.50260   0.78686   0.14245   1.000
    Zr17    Zr   0.40824   0.68375   0.04040   1.000
    Zr18    Zr   0.71505   0.67381   0.15553   1.000
    Zr19    Zr   0.76027   0.83125   0.13300   1.000
    Zr20    Zr   0.00430   0.85733   0.21752   1.000
    Zr21    Zr   0.90770   0.95962   0.31919   1.000
    Zr22    Zr   0.21734   0.84486   0.32887   1.000
    Zr23    Zr   0.25786   0.86557   0.16891   1.000
    Zr24    Zr   0.49717   0.20909   0.85792   1.000
    Zr25    Zr   0.58624   0.31971   0.95607   1.000
    Zr26    Zr   0.28469   0.32474   0.84348   1.000
    Zr27    Zr   0.23547   0.16910   0.86614   1.000
    O28     O    0.44774   0.70922   0.05044   1.000
    O29     O    0.36668   0.70427   0.09970   1.000
    O30     O    0.49492   0.76078   0.10147   1.000
    O31     O    0.73731   0.79126   0.11898   1.000
    O32     O    0.71470   0.71254   0.13024   1.000
    O33     O    0.79347   0.83587   0.20411   1.000
    O34     O    0.29149   0.79519   0.16395   1.000
    O35     O    0.23608   0.88026   0.20979   1.000
    O36     O    0.99596   0.89845   0.24331   1.000
    O37     O    0.21582   0.86990   0.28977   1.000
    O38     O    0.94766   0.94960   0.29414   1.000
    O39     O    0.86719   0.90005   0.29721   1.000
    O40     O    0.78277   0.13017   0.71042   1.000
    O41     O    0.12918   0.10010   0.70236   1.000
    O42     O    0.04952   0.05041   0.70574   1.000
    O43     O    0.20243   0.16446   0.79543   1.000
    O44     O    0.00250   0.10143   0.75773   1.000
    O45     O    0.76077   0.11960   0.78975   1.000
    O46     O    0.70473   0.20468   0.83511   1.000
    O47     O    0.62874   0.29743   0.89804   1.000
    O48     O    0.28399   0.28635   0.86901   1.000
    O49     O    0.50359   0.23688   0.89797   1.000
    O50     O    0.25938   0.20853   0.88034   1.000
    O51     O    0.54812   0.29219   0.94705   1.000
    N52     N    0.24816   0.24001   0.24042   1.000
    O53     O    0.36161   0.25300   0.11000   1.000
    O54     O    0.27908   0.24440   0.09431   1.000
    O55     O    0.21784   0.09433   0.24619   1.000
    O56     O    0.13533   0.11044   0.25542   1.000
    N57     N    0.49831   0.99975   0.50021   1.000
    O58     O    0.63243   0.93410   0.40934   1.000
    O59     O    0.36404   0.06586   0.59091   1.000
    N60     N    0.75050   0.75935   0.75930   1.000
    O61     O    0.78028   0.90531   0.75377   1.000
    O62     O    0.63646   0.74625   0.88918   1.000
    O63     O    0.86285   0.88928   0.74484   1.000
    O64     O    0.71910   0.75481   0.90525   1.000
    N65     N    0.99835   0.50006   0.49980   1.000
    O66     O    0.92940   0.63793   0.40654   1.000
    O67     O    0.06709   0.36227   0.59321   1.000
    N68     N    0.99846   0.49944   0.99945   1.000
    O69     O    0.13191   0.59056   0.06498   1.000
    O70     O    0.86485   0.40865   0.93415   1.000
    N71     N    0.49881   0.49984   0.49934   1.000
    O72     O    0.42898   0.59306   0.36143   1.000
    O73     O    0.56825   0.40664   0.63731   1.000
loop_
    _geom_bond_atom_site_label_1
    _geom_bond_atom_site_label_2
    _geom_bond_distance
    _geom_bond_site_symmetry_2
    _ccdc_geom_bond_type
    Zr17   O28       0.65016      .   S
    Zr6    O28       0.65016      .   S
    Zr17   O29       1.00759      .   S
    Zr1    O29       1.00759      .   S
    Zr6    O30       0.62557      .   S
    Zr16   O30       0.62557      .   S
    Zr7    O31       0.64461      .   S
    Zr19   O31       0.64461      .   S
    Zr7    O32       0.62672      .   S
    Zr18   O32       0.62672      .   S
    Zr19   O33       0.99215      .   S
    Zr2    O33       0.99215      .   S
    Zr1    O34       0.98571      .   S
    Zr23   O34       0.98571      .   S
    Zr23   O35       0.64559      .   S
    Zr9    O35       0.64559      .   S
    Zr20   O36       0.62613  1_455   S
    Zr8    O36       0.62613      .   S
    Zr9    O37       0.62664      .   S
    Zr22   O37       0.62664      .   S
    Zr8    O38       0.64974      .   S
    Zr21   O38       0.64974      .   S
    Zr2    O39       1.00966      .   S
    Zr21   O39       1.00966      .   S
    Zr14   O40       0.62667      .   S
    Zr5    O40       0.62667      .   S
    Zr13   O41       1.00992      .   S
    Zr0    O41       1.00992      .   S
    Zr13   O42       0.64941      .   S
    Zr4    O42       0.64941      .   S
    Zr0    O43       0.98669      .   S
    Zr27   O43       0.98669      .   S
    Zr4    O44       0.62638      .   S
    Zr12   O44       0.62638  1_655   S
    Zr5    O45       0.64579      .   S
    Zr15   O45       0.64579      .   S
    Zr15   O46       0.98599      .   S
    Zr3    O46       0.98599      .   S
    Zr3    O47       1.00564      .   S
    Zr25   O47       1.00564      .   S
    Zr26   O48       0.62687      .   S
    Zr11   O48       0.62687      .   S
    Zr24   O49       0.62559      .   S
    Zr10   O49       0.62559      .   S
    Zr27   O50       0.64558      .   S
    Zr11   O50       0.64558      .   S
    Zr10   O51       0.65042      .   S
    Zr25   O51       0.65042      .   S
    N52    O53       2.42324      .   S
    Zr10   O53       3.17180  1_556   S
    N52    O54       2.01290      .   S
    Zr11   O54       2.63833  1_556   S
    N52    O55       2.01313      .   S
    Zr9    O55       2.63921  1_565   S
    N52    O56       2.42125      .   S
    Zr8    O56       3.16843  1_665   S
    N57    O58       2.30478      .   S
    Zr2    O58       3.35233      .   S
    N57    O59       2.30671  1_565   S
    Zr0    O59       3.35524      .   S
    N60    O61       2.01415      .   S
    Zr5    O61       2.64236  1_545   S
    N60    O62       2.42353      .   S
    Zr6    O62       3.17217  1_554   S
    N60    O63       2.41916      .   S
    Zr4    O63       3.16624  1_445   S
    N60    O64       2.01306      .   S
    Zr7    O64       2.63816  1_554   S
    N65    O66       2.30987      .   S
    Zr2    O66       3.35849      .   S
    N65    O67       2.30936  1_655   S
    Zr0    O67       3.35724      .   S
    N68    O69       2.30790  1_656   S
    Zr1    O69       3.35636      .   S
    N68    O70       2.30634      .   S
    Zr3    O70       3.35523      .   S
    N71    O72       2.31230      .   S
    Zr1    O72       3.36334      .   S
    N71    O73       2.31141      .   S
    Zr3    O73       3.36112      .   S
