# CIF file generated by openbabel 2.4.90, see http://openbabel.sf.net
data_I
_chemical_name_common ''
_cell_length_a 13.254
_cell_length_b 13.186
_cell_length_c 13.156
_cell_angle_alpha 93.741
_cell_angle_beta 96.041
_cell_angle_gamma 83.687
_space_group_name_H-M_alt 'P 1'
_space_group_name_Hall 'P 1'
loop_
    _symmetry_equiv_pos_as_xyz
    x,y,z
loop_
    _atom_site_label
    _atom_site_type_symbol
    _atom_site_fract_x
    _atom_site_fract_y
    _atom_site_fract_z
    _atom_site_occupancy
    N0      N    0.24816   0.24001   0.24042   1.000
    N1      N    0.49831   0.99975   0.50021   1.000
    N2      N    0.75050   0.75935   0.75930   1.000
    N3      N    0.99835   0.50006   0.49980   1.000
    N4      N    0.99846   0.49944   0.99945   1.000
    N5      N    0.49881   0.49984   0.49934   1.000
    Zr6     Zr   0.15240   0.16355   0.78919   1.000
    O7      O    0.21574   0.20398   0.94175   1.000
    O8      O    0.25822   0.11471   0.69005   1.000
    O9      O    0.10975   0.26291   0.69120   1.000
    O10     O    0.00763   0.02641   0.76702   1.000
    Zr11    Zr   0.65263   0.20902   0.83472   1.000
    O12     O    0.61044   0.30783   0.73602   1.000
    O13     O    0.75874   0.30883   0.88444   1.000
    O14     O    0.71646   0.05717   0.79425   1.000
    O15     O    0.50712   0.23101   0.97236   1.000
    Zr16    Zr   0.84514   0.83619   0.21064   1.000
    O17     O    0.73878   0.88514   0.30999   1.000
    O18     O    0.88727   0.73706   0.30859   1.000
    O19     O    0.78212   0.79550   0.05795   1.000
    O20     O    0.99023   0.97332   0.23303   1.000
    Zr21    Zr   0.34467   0.79078   0.16439   1.000
    O22     O    0.38683   0.69192   0.26291   1.000
    O23     O    0.23829   0.69067   0.11469   1.000
    O24     O    0.28126   0.94256   0.20529   1.000
    O25     O    0.49057   0.76852   0.02679   1.000
loop_
    _geom_bond_atom_site_label_1
    _geom_bond_atom_site_label_2
    _geom_bond_distance
    _geom_bond_site_symmetry_2
    _ccdc_geom_bond_type
    Zr6    O7        2.14973      .   S
    N0     O7        3.91100  1_554   S
    Zr6    O8        2.03957      .   S
    N1     O8        4.33353  1_565   S
    Zr6    O9        1.89789      .   S
    N3     O9        4.18669  1_655   S
    Zr6    O10       2.75924      .   S
    N2     O10       5.15230  1_665   S
    Zr11   O12       1.89848      .   S
    N5     O12       4.18680      .   S
    Zr11   O13       2.05889      .   S
    N4     O13       4.35312      .   S
    Zr11   O14       2.14288      .   S
    N2     O14       3.90577  1_565   S
    Zr11   O15       2.76154      .   S
    N0     O15       5.16086  1_554   S
    Zr16   O17       2.04687      .   S
    N1     O17       4.33939      .   S
    Zr16   O18       1.89439      .   S
    N3     O18       4.18290      .   S
    Zr16   O19       2.15077      .   S
    N2     O19       3.91061  1_556   S
    Zr16   O20       2.76233      .   S
    N0     O20       5.15678  1_445   S
    Zr21   O22       1.89720      .   S
    N5     O22       4.18600      .   S
    Zr21   O23       2.06416      .   S
    N4     O23       4.36005  1_656   S
    Zr21   O24       2.14145      .   S
    N0     O24       3.90102  1_545   S
    Zr21   O25       2.76500      .   S
    N2     O25       5.16448  1_556   S
