# CIF file generated by openbabel 2.4.90, see http://openbabel.sf.net
data_I
_chemical_name_common ''
_cell_length_a 19.006
_cell_length_b 18.833
_cell_length_c 18.822
_cell_angle_alpha 89.995
_cell_angle_beta 90.001
_cell_angle_gamma 89.998
_space_group_name_H-M_alt 'P 1'
_space_group_name_Hall 'P 1'
loop_
    _symmetry_equiv_pos_as_xyz
    x,y,z
loop_
    _atom_site_label
    _atom_site_type_symbol
    _atom_site_fract_x
    _atom_site_fract_y
    _atom_site_fract_z
    _atom_site_occupancy
    Al0     Al   0.95806   0.93567   0.33463   1.000
    Al1     Al   0.42170   0.83501   0.54457   1.000
    Al2     Al   0.92171   0.83501   0.54457   1.000
    Al3     Al   0.33284   0.05107   0.56610   1.000
    Al4     Al   0.83284   0.05107   0.56610   1.000
    Al5     Al   0.45806   0.56440   0.16533   1.000
    Al6     Al   0.95806   0.56440   0.16533   1.000
    Al7     Al   0.42172   0.66501   0.95539   1.000
    Al8     Al   0.92173   0.66501   0.95539   1.000
    Al9     Al   0.33283   0.44894   0.93380   1.000
    Al10    Al   0.83283   0.44894   0.93380   1.000
    Al11    Al   0.45820   0.16550   0.93420   1.000
    Al12    Al   0.95821   0.16550   0.93420   1.000
    Al13    Al   0.42179   0.95528   0.83528   1.000
    Al14    Al   0.92180   0.95528   0.83528   1.000
    Al15    Al   0.33265   0.93398   0.05093   1.000
    Al16    Al   0.83266   0.93398   0.05093   1.000
    Al17    Al   0.45820   0.33449   0.56574   1.000
    Al18    Al   0.95821   0.33449   0.56574   1.000
    Al19    Al   0.42180   0.54475   0.66468   1.000
    Al20    Al   0.92181   0.54475   0.66468   1.000
    Al21    Al   0.33266   0.56603   0.44902   1.000
    Al22    Al   0.83266   0.56603   0.44902   1.000
    Al23    Al   0.04196   0.06434   0.66535   1.000
    Al24    Al   0.54197   0.06434   0.66535   1.000
    Al25    Al   0.07831   0.16500   0.45542   1.000
    Al26    Al   0.57832   0.16500   0.45542   1.000
    Al27    Al   0.16717   0.94894   0.43389   1.000
    Al28    Al   0.66718   0.94894   0.43389   1.000
    Al29    Al   0.04195   0.43561   0.83466   1.000
    Al30    Al   0.54196   0.43561   0.83466   1.000
    Al31    Al   0.07829   0.33500   0.04460   1.000
    Al32    Al   0.45805   0.93567   0.33463   1.000
    Al33    Al   0.57830   0.33500   0.04460   1.000
    Al34    Al   0.16718   0.55107   0.06610   1.000
    Al35    Al   0.66719   0.55107   0.06610   1.000
    Al36    Al   0.04181   0.83451   0.06573   1.000
    Al37    Al   0.54182   0.83451   0.06573   1.000
    Al38    Al   0.07822   0.04473   0.16470   1.000
    Al39    Al   0.57823   0.04473   0.16470   1.000
    Al40    Al   0.16736   0.06603   0.94905   1.000
    Al41    Al   0.66737   0.06603   0.94905   1.000
    Al42    Al   0.04181   0.66552   0.43425   1.000
    Al43    Al   0.54182   0.66552   0.43425   1.000
    Al44    Al   0.07821   0.45526   0.33530   1.000
    Al45    Al   0.57822   0.45526   0.33530   1.000
    Al46    Al   0.16735   0.43398   0.55096   1.000
    Al47    Al   0.66736   0.43398   0.55096   1.000
