# CIF file generated by openbabel 2.4.90, see http://openbabel.sf.net
data_I
_chemical_name_common ''
_cell_length_a 19.006
_cell_length_b 18.833
_cell_length_c 18.822
_cell_angle_alpha 89.995
_cell_angle_beta 90.001
_cell_angle_gamma 89.998
_space_group_name_H-M_alt 'P 1'
_space_group_name_Hall 'P 1'
loop_
    _symmetry_equiv_pos_as_xyz
    x,y,z
loop_
    _atom_site_label
    _atom_site_type_symbol
    _atom_site_fract_x
    _atom_site_fract_y
    _atom_site_fract_z
    _atom_site_occupancy
    N0      N    0.04615   0.43409   0.66491   1.000
    N1      N    0.54615   0.43409   0.66491   1.000
    N2      N    0.33285   0.56690   0.05566   1.000
    N3      N    0.83293   0.44432   0.56691   1.000
    N4      N    0.83284   0.93315   0.44414   1.000
    N5      N    0.33283   0.93315   0.44422   1.000
    N6      N    0.95383   0.16501   0.56677   1.000
    N7      N    0.42126   0.54890   0.83489   1.000
    N8      N    0.95387   0.93411   0.16488   1.000
    N9      N    0.45382   0.16501   0.56677   1.000
    N10     N    0.42116   0.83479   0.95145   1.000
    N11     N    0.92129   0.95104   0.66509   1.000
    N12     N    0.92127   0.54890   0.83489   1.000
    N13     N    0.54620   0.83500   0.43321   1.000
    N14     N    0.45381   0.33496   0.93327   1.000
    N15     N    0.57876   0.45111   0.16510   1.000
    N16     N    0.07875   0.45111   0.16510   1.000
    N17     N    0.83286   0.56690   0.05566   1.000
    N18     N    0.95381   0.33496   0.93326   1.000
    N19     N    0.33292   0.05569   0.93299   1.000
    N20     N    0.04619   0.83500   0.43321   1.000
    N21     N    0.54616   0.06589   0.83509   1.000
    N22     N    0.16709   0.94432   0.06700   1.000
    N23     N    0.57874   0.04893   0.33489   1.000
    N24     N    0.07873   0.04893   0.33489   1.000
    N25     N    0.92117   0.83479   0.95145   1.000
    N26     N    0.07884   0.33479   0.45150   1.000
    N27     N    0.66710   0.94432   0.06700   1.000
    N28     N    0.16718   0.06686   0.55565   1.000
    N29     N    0.42117   0.66522   0.54846   1.000
    N30     N    0.92118   0.66522   0.54846   1.000
    N31     N    0.45386   0.93411   0.16488   1.000
    N32     N    0.42128   0.95104   0.66509   1.000
    N33     N    0.16716   0.43311   0.94432   1.000
    N34     N    0.04620   0.66504   0.06672   1.000
    N35     N    0.07885   0.16522   0.04847   1.000
    N36     N    0.16709   0.55569   0.43303   1.000
    N37     N    0.66710   0.55569   0.43303   1.000
    N38     N    0.66717   0.43311   0.94432   1.000
    N39     N    0.57885   0.33479   0.45150   1.000
    N40     N    0.57885   0.16522   0.04847   1.000
    N41     N    0.54621   0.66504   0.06670   1.000
    N42     N    0.33292   0.44432   0.56691   1.000
    N43     N    0.45386   0.56592   0.33508   1.000
    N44     N    0.95387   0.56592   0.33508   1.000
    N45     N    0.04615   0.06589   0.83509   1.000
    N46     N    0.83293   0.05569   0.93299   1.000
    N47     N    0.66719   0.06686   0.55567   1.000
    Zr48    Zr   0.33265   0.93398   0.05093   1.000
    O49     O    0.28024   0.93523   0.05789   1.000
    O50     O    0.36915   0.93491   0.08914   1.000
    O51     O    0.33428   0.97413   0.01524   1.000
    O52     O    0.35832   0.90006   0.01969   1.000
    Zr53    Zr   0.83266   0.56603   0.44902   1.000
    O54     O    0.85833   0.59995   0.48022   1.000
    O55     O    0.86916   0.56511   0.41081   1.000
    O56     O    0.83429   0.52587   0.48468   1.000
    O57     O    0.78025   0.56478   0.44208   1.000
    Zr58    Zr   0.42179   0.95528   0.83528   1.000
    O59     O    0.42138   0.91495   0.86990   1.000
    O60     O    0.46301   0.98826   0.83726   1.000
    O61     O    0.39114   0.98739   0.86366   1.000
    O62     O    0.42026   0.95209   0.78141   1.000
    Zr63    Zr   0.33266   0.56603   0.44902   1.000
    O64     O    0.28024   0.56478   0.44208   1.000
    O65     O    0.36915   0.56511   0.41081   1.000
    O66     O    0.35833   0.59995   0.48022   1.000
    O67     O    0.33428   0.52587   0.48468   1.000
    Zr68    Zr   0.16736   0.06603   0.94905   1.000
    O69     O    0.13086   0.06510   0.91084   1.000
    O70     O    0.21977   0.06478   0.94209   1.000
    O71     O    0.14169   0.09995   0.98024   1.000
    O72     O    0.16573   0.02588   0.98474   1.000
    Zr73    Zr   0.92180   0.95528   0.83528   1.000
    O74     O    0.92027   0.95209   0.78141   1.000
    O75     O    0.89115   0.98739   0.86366   1.000
    O76     O    0.96301   0.98826   0.83726   1.000
    O77     O    0.92139   0.91495   0.86990   1.000
    Zr78    Zr   0.83284   0.05107   0.56610   1.000
    O79     O    0.78040   0.05794   0.56481   1.000
    O80     O    0.85851   0.01968   0.59996   1.000
    O81     O    0.83438   0.01539   0.52588   1.000
    O82     O    0.86926   0.08930   0.56536   1.000
    Zr83    Zr   0.42172   0.66501   0.95539   1.000
    O84     O    0.46298   0.66320   0.98858   1.000
    O85     O    0.42016   0.71876   0.95226   1.000
    O86     O    0.39109   0.63648   0.98746   1.000
    O87     O    0.42133   0.63042   0.91504   1.000
    Zr88    Zr   0.42180   0.54475   0.66468   1.000
    O89     O    0.46301   0.51175   0.66271   1.000
    O90     O    0.42027   0.54791   0.71856   1.000
    O91     O    0.39114   0.51264   0.63626   1.000
    O92     O    0.42139   0.58508   0.63005   1.000
    Zr93    Zr   0.45805   0.93567   0.33463   1.000
    O94     O    0.45498   0.93402   0.28091   1.000
    O95     O    0.48615   0.90148   0.36337   1.000
    O96     O    0.49425   0.97377   0.33656   1.000
    O97     O    0.41654   0.93539   0.36720   1.000
    Zr98    Zr   0.95821   0.33449   0.56574   1.000
    O99     O    0.98621   0.36352   0.59959   1.000
    O100    O    0.91669   0.36720   0.56552   1.000
    O101    O    0.99442   0.33638   0.52738   1.000
    O102    O    0.95509   0.28086   0.56744   1.000
    Zr103   Zr   0.66736   0.43398   0.55096   1.000
    O104    O    0.64169   0.40006   0.51975   1.000
    O105    O    0.63087   0.43489   0.58917   1.000
    O106    O    0.71977   0.43523   0.55789   1.000
    O107    O    0.66574   0.47414   0.51528   1.000
    Zr108   Zr   0.04181   0.66552   0.43425   1.000
    O109    O    0.08333   0.63280   0.43445   1.000
    O110    O    0.00560   0.66363   0.47260   1.000
    O111    O    0.04493   0.71915   0.43254   1.000
    O112    O    0.01381   0.63649   0.40040   1.000
    Zr113   Zr   0.95806   0.93567   0.33463   1.000
    O114    O    0.99426   0.97377   0.33656   1.000
    O115    O    0.91655   0.93539   0.36724   1.000
    O116    O    0.95499   0.93402   0.28091   1.000
    O117    O    0.98616   0.90148   0.36337   1.000
    Zr118   Zr   0.95806   0.56440   0.16533   1.000
    O119    O    0.95500   0.56604   0.21904   1.000
    O120    O    0.91656   0.56466   0.13268   1.000
    O121    O    0.98616   0.59857   0.13658   1.000
    O122    O    0.99427   0.52629   0.16340   1.000
    Zr123   Zr   0.57822   0.45526   0.33530   1.000
    O124    O    0.60888   0.48737   0.36369   1.000
    O125    O    0.57863   0.41493   0.36993   1.000
    O126    O    0.53701   0.48826   0.33727   1.000
    O127    O    0.57975   0.45210   0.28142   1.000
    Zr128   Zr   0.54182   0.83451   0.06573   1.000
    O129    O    0.54495   0.78088   0.06742   1.000
    O130    O    0.51381   0.86354   0.09957   1.000
    O131    O    0.50560   0.83639   0.02736   1.000
    O132    O    0.58334   0.86721   0.06554   1.000
    Zr133   Zr   0.83266   0.93398   0.05093   1.000
    O134    O    0.85833   0.90006   0.01969   1.000
    O135    O    0.83429   0.97413   0.01524   1.000
    O136    O    0.86915   0.93491   0.08914   1.000
    O137    O    0.78025   0.93523   0.05789   1.000
    Zr138   Zr   0.66737   0.06603   0.94905   1.000
    O139    O    0.63087   0.06510   0.91084   1.000
    O140    O    0.71978   0.06478   0.94209   1.000
    O141    O    0.66574   0.02588   0.98474   1.000
    O142    O    0.64170   0.09995   0.98024   1.000
    Zr143   Zr   0.83283   0.44894   0.93380   1.000
    O144    O    0.85849   0.48029   0.89996   1.000
    O145    O    0.86925   0.41070   0.93458   1.000
    O146    O    0.83438   0.48464   0.97400   1.000
    O147    O    0.78039   0.44206   0.93513   1.000
    Zr148   Zr   0.33284   0.05107   0.56610   1.000
    O149    O    0.28039   0.05793   0.56481   1.000
    O150    O    0.36925   0.08930   0.56536   1.000
    O151    O    0.33437   0.01539   0.52590   1.000
    O152    O    0.35850   0.01968   0.59996   1.000
    Zr153   Zr   0.54196   0.43561   0.83466   1.000
    O154    O    0.54503   0.43397   0.78095   1.000
    O155    O    0.50575   0.47372   0.83659   1.000
    O156    O    0.58347   0.43535   0.86730   1.000
    O157    O    0.51386   0.40143   0.86341   1.000
    Zr158   Zr   0.07829   0.33500   0.04460   1.000
    O159    O    0.07985   0.28125   0.04772   1.000
    O160    O    0.10892   0.36353   0.01253   1.000
    O161    O    0.03703   0.33681   0.01140   1.000
    O162    O    0.07868   0.36959   0.08495   1.000
    Zr163   Zr   0.57830   0.33500   0.04460   1.000
    O164    O    0.57986   0.28125   0.04772   1.000
    O165    O    0.60893   0.36353   0.01253   1.000
    O166    O    0.53704   0.33681   0.01140   1.000
    O167    O    0.57869   0.36959   0.08495   1.000
    Zr168   Zr   0.16718   0.55107   0.06610   1.000
    O169    O    0.13077   0.58931   0.06534   1.000
    O170    O    0.16564   0.51537   0.02593   1.000
    O171    O    0.21963   0.55795   0.06480   1.000
    O172    O    0.14153   0.51972   0.09997   1.000
    Zr173   Zr   0.57832   0.16500   0.45542   1.000
    O174    O    0.60896   0.13645   0.48747   1.000
    O175    O    0.57987   0.21874   0.45229   1.000
    O176    O    0.57870   0.13042   0.41506   1.000
    O177    O    0.53706   0.16317   0.48863   1.000
    Zr178   Zr   0.16717   0.94894   0.43389   1.000
    O179    O    0.14151   0.98030   0.40002   1.000
    O180    O    0.16564   0.98462   0.47406   1.000
    O181    O    0.13076   0.91071   0.43462   1.000
    O182    O    0.21962   0.94207   0.43515   1.000
    Zr183   Zr   0.33283   0.44894   0.93380   1.000
    O184    O    0.36924   0.41070   0.93459   1.000
    O185    O    0.33437   0.48464   0.97400   1.000
    O186    O    0.35848   0.48029   0.89996   1.000
    O187    O    0.28038   0.44206   0.93513   1.000
    Zr188   Zr   0.07821   0.45526   0.33530   1.000
    O189    O    0.03700   0.48826   0.33727   1.000
    O190    O    0.10887   0.48737   0.36369   1.000
    O191    O    0.07862   0.41493   0.36993   1.000
    O192    O    0.07974   0.45210   0.28142   1.000
    Zr193   Zr   0.54182   0.66552   0.43425   1.000
    O194    O    0.51381   0.63649   0.40040   1.000
    O195    O    0.54494   0.71915   0.43254   1.000
    O196    O    0.50560   0.66363   0.47260   1.000
    O197    O    0.58334   0.63280   0.43445   1.000
    Zr198   Zr   0.92171   0.83501   0.54457   1.000
    O199    O    0.92015   0.78126   0.54768   1.000
    O200    O    0.92133   0.86958   0.58493   1.000
    O201    O    0.96296   0.83684   0.51135   1.000
    O202    O    0.89107   0.86356   0.51247   1.000
    Zr203   Zr   0.54197   0.06434   0.66535   1.000
    O204    O    0.58348   0.06462   0.63270   1.000
    O205    O    0.51386   0.09853   0.63661   1.000
    O206    O    0.54504   0.06599   0.71906   1.000
    O207    O    0.50576   0.02623   0.66342   1.000
    Zr208   Zr   0.92173   0.66501   0.95539   1.000
    O209    O    0.96298   0.66320   0.98859   1.000
    O210    O    0.92133   0.63042   0.91504   1.000
    O211    O    0.92017   0.71876   0.95226   1.000
    O212    O    0.89110   0.63648   0.98746   1.000
    Zr213   Zr   0.57823   0.04473   0.16470   1.000
    O214    O    0.53701   0.01175   0.16271   1.000
    O215    O    0.57863   0.08506   0.13006   1.000
    O216    O    0.57975   0.04791   0.21857   1.000
    O217    O    0.60888   0.01262   0.13632   1.000
    Zr218   Zr   0.07822   0.04473   0.16470   1.000
    O219    O    0.07975   0.04791   0.21857   1.000
    O220    O    0.03701   0.01175   0.16271   1.000
    O221    O    0.07863   0.08506   0.13006   1.000
    O222    O    0.10887   0.01262   0.13632   1.000
    Zr223   Zr   0.07831   0.16500   0.45542   1.000
    O224    O    0.10895   0.13645   0.48746   1.000
    O225    O    0.07869   0.13042   0.41506   1.000
    O226    O    0.03706   0.16317   0.48863   1.000
    O227    O    0.07986   0.21874   0.45229   1.000
    Zr228   Zr   0.45806   0.56440   0.16533   1.000
    O229    O    0.48616   0.59858   0.13657   1.000
    O230    O    0.49427   0.52629   0.16340   1.000
    O231    O    0.41655   0.56466   0.13268   1.000
    O232    O    0.45499   0.56604   0.21904   1.000
    Zr233   Zr   0.66718   0.94894   0.43389   1.000
    O234    O    0.64152   0.98030   0.40002   1.000
    O235    O    0.66565   0.98462   0.47407   1.000
    O236    O    0.63077   0.91071   0.43462   1.000
    O237    O    0.71963   0.94207   0.43513   1.000
    Zr238   Zr   0.04195   0.43561   0.83466   1.000
    O239    O    0.01386   0.40143   0.86341   1.000
    O240    O    0.00575   0.47372   0.83659   1.000
    O241    O    0.04502   0.43397   0.78095   1.000
    O242    O    0.08346   0.43535   0.86730   1.000
    Zr243   Zr   0.45820   0.33449   0.56574   1.000
    O244    O    0.41668   0.36720   0.56552   1.000
    O245    O    0.45508   0.28086   0.56744   1.000
    O246    O    0.48621   0.36352   0.59959   1.000
    O247    O    0.49441   0.33638   0.52738   1.000
    Zr248   Zr   0.16735   0.43398   0.55096   1.000
    O249    O    0.14168   0.40006   0.51975   1.000
    O250    O    0.13086   0.43489   0.58917   1.000
    O251    O    0.21977   0.43523   0.55789   1.000
    O252    O    0.16573   0.47414   0.51528   1.000
    Zr253   Zr   0.42170   0.83501   0.54457   1.000
    O254    O    0.42132   0.86958   0.58493   1.000
    O255    O    0.46296   0.83684   0.51135   1.000
    O256    O    0.39106   0.86356   0.51249   1.000
    O257    O    0.42015   0.78126   0.54768   1.000
    Zr258   Zr   0.45820   0.16550   0.93420   1.000
    O259    O    0.49442   0.16361   0.97258   1.000
    O260    O    0.48621   0.13647   0.90037   1.000
    O261    O    0.41668   0.13279   0.93441   1.000
    O262    O    0.45507   0.21913   0.93253   1.000
    Zr263   Zr   0.92181   0.54475   0.66468   1.000
    O264    O    0.92140   0.58508   0.63005   1.000
    O265    O    0.92027   0.54791   0.71856   1.000
    O266    O    0.96301   0.51175   0.66271   1.000
    O267    O    0.89115   0.51264   0.63626   1.000
    Zr268   Zr   0.66719   0.55107   0.06610   1.000
    O269    O    0.71964   0.55795   0.06480   1.000
    O270    O    0.66565   0.51537   0.02593   1.000
    O271    O    0.64153   0.51972   0.09997   1.000
    O272    O    0.63078   0.58931   0.06534   1.000
    Zr273   Zr   0.04181   0.83451   0.06573   1.000
    O274    O    0.00560   0.83639   0.02736   1.000
    O275    O    0.08333   0.86721   0.06554   1.000
    O276    O    0.04494   0.78088   0.06742   1.000
    O277    O    0.01381   0.86354   0.09957   1.000
    Zr278   Zr   0.95821   0.16550   0.93420   1.000
    O279    O    0.95508   0.21913   0.93253   1.000
    O280    O    0.91669   0.13279   0.93441   1.000
    O281    O    0.98621   0.13647   0.90037   1.000
    O282    O    0.99442   0.16361   0.97258   1.000
    Zr283   Zr   0.04196   0.06434   0.66535   1.000
    O284    O    0.08347   0.06462   0.63269   1.000
    O285    O    0.00576   0.02623   0.66342   1.000
    O286    O    0.01386   0.09853   0.63661   1.000
    O287    O    0.04503   0.06599   0.71906   1.000
loop_
    _geom_bond_atom_site_label_1
    _geom_bond_atom_site_label_2
    _geom_bond_distance
    _geom_bond_site_symmetry_2
    _ccdc_geom_bond_type
    Zr48   O49       1.00497      .   S
    N22    O49       2.16411      .   S
    Zr48   O50       0.99933      .   S
    N31    O50       2.15048      .   S
    Zr48   O51       1.01183      .   S
    N19    O51       2.18091  1_546   S
    Zr48   O52       0.99595      .   S
    N10    O52       2.14183  1_556   S
    Zr53   O54       0.99556      .   S
    N30    O54       2.14188      .   S
    Zr53   O55       0.99930      .   S
    N44    O55       2.15044      .   S
    Zr53   O56       1.01155      .   S
    N3     O56       2.18051      .   S
    Zr53   O57       1.00496      .   S
    N37    O57       2.16409      .   S
    Zr58   O59       1.00076      .   S
    N10    O59       2.15279      .   S
    Zr58   O60       1.00046      .   S
    N21    O60       2.15336  1_545   S
    Zr58   O61       0.99526      .   S
    N19    O61       2.14051  1_545   S
    Zr58   O62       1.01615      .   S
    N32    O62       2.18950      .   S
    Zr63   O64       1.00496      .   S
    N36    O64       2.16409      .   S
    Zr63   O65       0.99930      .   S
    N43    O65       2.15044      .   S
    Zr63   O66       0.99556      .   S
    N29    O66       2.14188      .   S
    Zr63   O67       1.01155      .   S
    N42    O67       2.18051      .   S
    Zr68   O69       0.99935      .   S
    N45    O69       2.15061      .   S
    Zr68   O70       1.00496      .   S
    N19    O70       2.16409      .   S
    Zr68   O71       0.99548      .   S
    N35    O71       2.14168  1_554   S
    Zr68   O72       1.01187      .   S
    N22    O72       2.18098  1_564   S
    Zr73   O74       1.01615      .   S
    N11    O74       2.18950      .   S
    Zr73   O75       0.99526      .   S
    N46    O75       2.14051  1_545   S
    Zr73   O76       1.00037      .   S
    N45    O76       2.15322  1_445   S
    Zr73   O77       1.00076      .   S
    N25    O77       2.15279      .   S
    Zr78   O79       1.00541      .   S
    N47    O79       2.16514      .   S
    Zr78   O80       0.99675      .   S
    N11    O80       2.14403  1_565   S
    Zr78   O81       1.01273      .   S
    N4     O81       2.18328  1_565   S
    Zr78   O82       0.99875      .   S
    N6     O82       2.14892      .   S
    Zr83   O84       1.00318      .   S
    N41    O84       2.15996  1_554   S
    Zr83   O85       1.01435      .   S
    N10    O85       2.18540      .   S
    Zr83   O86       0.99605      .   S
    N2     O86       2.14234  1_554   S
    Zr83   O87       1.00067      .   S
    N7     O87       2.15248      .   S
    Zr88   O89       1.00054      .   S
    N1     O89       2.15355      .   S
    Zr88   O90       1.01628      .   S
    N7     O90       2.18975      .   S
    Zr88   O91       0.99564      .   S
    N42    O91       2.14111      .   S
    Zr88   O92       1.00085      .   S
    N29    O92       2.15316      .   S
    Zr93   O94       1.01321      .   S
    N31    O94       2.18412      .   S
    Zr93   O95       0.99612      .   S
    N13    O95       2.14419      .   S
    Zr93   O96       0.99490      .   S
    N23    O96       2.14081  1_545   S
    Zr93   O97       0.99910      .   S
    N5     O97       2.15280      .   S
    Zr98   O99       0.99405      .   S
    N0     O99       2.13905  1_455   S
    Zr98   O100      1.00113      .   S
    N3     O100      2.15511      .   S
    Zr98   O101      0.99808      .   S
    N26    O101      2.14832  1_455   S
    Zr98   O102      1.01231      .   S
    N6     O102      2.18192      .   S
    Zr103  O104      0.99564      .   S
    N39    O104      2.14197      .   S
    Zr103  O105      0.99934      .   S
    N1     O105      2.15047      .   S
    Zr103  O106      1.00494      .   S
    N3     O106      2.16404      .   S
    Zr103  O107      1.01179      .   S
    N37    O107      2.18082      .   S
    Zr108  O109      1.00113      .   S
    N36    O109      2.15512      .   S
    Zr108  O110      0.99799      .   S
    N30    O110      2.14808  1_655   S
    Zr108  O111      1.01231      .   S
    N20    O111      2.18193      .   S
    Zr108  O112      0.99408      .   S
    N44    O112      2.13906  1_655   S
    Zr113  O114      0.99482      .   S
    N24    O114      2.14067  1_445   S
    Zr113  O115      0.99960      .   S
    N4     O115      2.15127      .   S
    Zr113  O116      1.01321      .   S
    N8     O116      2.18412      .   S
    Zr113  O117      0.99606      .   S
    N20    O117      2.14409  1_455   S
    Zr118  O119      1.01313      .   S
    N44    O119      2.18416      .   S
    Zr118  O120      0.99997      .   S
    N17    O120      2.15264      .   S
    Zr118  O121      0.99616      .   S
    N34    O121      2.14437  1_455   S
    Zr118  O122      0.99493      .   S
    N16    O122      2.14093  1_455   S
    Zr123  O124      0.99543      .   S
    N37    O124      2.14086      .   S
    Zr123  O125      1.00080      .   S
    N39    O125      2.15300      .   S
    Zr123  O126      1.00054      .   S
    N43    O126      2.15355      .   S
    Zr123  O127      1.01622      .   S
    N15    O127      2.18966      .   S
    Zr128  O129      1.01222      .   S
    N41    O129      2.18173      .   S
    Zr128  O130      0.99410      .   S
    N31    O130      2.13907      .   S
    Zr128  O131      0.99830      .   S
    N10    O131      2.14886  1_556   S
    Zr128  O132      1.00108      .   S
    N27    O132      2.15501      .   S
    Zr133  O134      0.99595      .   S
    N25    O134      2.14183  1_556   S
    Zr133  O135      1.01183      .   S
    N46    O135      2.18091  1_546   S
    Zr133  O136      0.99933      .   S
    N8     O136      2.15048      .   S
    Zr133  O137      1.00497      .   S
    N27    O137      2.16411      .   S
    Zr138  O139      0.99935      .   S
    N21    O139      2.15061      .   S
    Zr138  O140      1.00496      .   S
    N46    O140      2.16409      .   S
    Zr138  O141      1.01187      .   S
    N27    O141      2.18098  1_564   S
    Zr138  O142      0.99548      .   S
    N40    O142      2.14168  1_554   S
    Zr143  O144      0.99596      .   S
    N12    O144      2.14322      .   S
    Zr143  O145      0.99882      .   S
    N18    O145      2.14906      .   S
    Zr143  O146      1.01270      .   S
    N17    O146      2.18259  1_554   S
    Zr143  O147      1.00551      .   S
    N38    O147      2.16542      .   S
    Zr148  O149      1.00541      .   S
    N28    O149      2.16515      .   S
    Zr148  O150      0.99875      .   S
    N9     O150      2.14892      .   S
    Zr148  O151      1.01246      .   S
    N5     O151      2.18251  1_565   S
    Zr148  O152      0.99675      .   S
    N32    O152      2.14403  1_565   S
    Zr153  O154      1.01315      .   S
    N1     O154      2.18422      .   S
    Zr153  O155      0.99501      .   S
    N7     O155      2.14107      .   S
    Zr153  O156      0.99994      .   S
    N38    O156      2.15260      .   S
    Zr153  O157      0.99618      .   S
    N14    O157      2.14443      .   S
    Zr158  O159      1.01434      .   S
    N35    O159      2.18541      .   S
    Zr158  O160      0.99608      .   S
    N33    O160      2.14238  1_556   S
    Zr158  O161      1.00325      .   S
    N18    O161      2.16008  1_656   S
    Zr158  O162      1.00066      .   S
    N16    O162      2.15245      .   S
    Zr163  O164      1.01434      .   S
    N40    O164      2.18541      .   S
    Zr163  O165      0.99608      .   S
    N38    O165      2.14238  1_556   S
    Zr163  O166      1.00331      .   S
    N14    O166      2.16010  1_556   S
    Zr163  O167      1.00066      .   S
    N15    O167      2.15245      .   S
    Zr168  O169      0.99882      .   S
    N34    O169      2.14907      .   S
    Zr168  O170      1.01227      .   S
    N33    O170      2.18189  1_556   S
    Zr168  O171      1.00549      .   S
    N2     O171      2.16533      .   S
    Zr168  O172      0.99637      .   S
    N16    O172      2.14381      .   S
    Zr173  O174      0.99602      .   S
    N47    O174      2.14230      .   S
    Zr173  O175      1.01440      .   S
    N39    O175      2.18554      .   S
    Zr173  O176      1.00062      .   S
    N23    O176      2.15232      .   S
    Zr173  O177      1.00341      .   S
    N9     O177      2.16031      .   S
    Zr178  O179      0.99644      .   S
    N24    O179      2.14403  1_545   S
    Zr178  O180      1.01203      .   S
    N28    O180      2.18137  1_545   S
    Zr178  O181      0.99875      .   S
    N20    O181      2.14892      .   S
    Zr178  O182      1.00540      .   S
    N5     O182      2.16502      .   S
    Zr183  O184      0.99882      .   S
    N14    O184      2.14905      .   S
    Zr183  O185      1.01271      .   S
    N2     O185      2.18260  1_554   S
    Zr183  O186      0.99597      .   S
    N7     O186      2.14322      .   S
    Zr183  O187      1.00551      .   S
    N33    O187      2.16542      .   S
    Zr188  O189      1.00045      .   S
    N44    O189      2.15341  1_655   S
    Zr188  O190      0.99543      .   S
    N36    O190      2.14086      .   S
    Zr188  O191      1.00080      .   S
    N26    O191      2.15300      .   S
    Zr188  O192      1.01622      .   S
    N16    O192      2.18966      .   S
    Zr193  O194      0.99414      .   S
    N43    O194      2.13916      .   S
    Zr193  O195      1.01232      .   S
    N13    O195      2.18193      .   S
    Zr193  O196      0.99807      .   S
    N29    O196      2.14822      .   S
    Zr193  O197      1.00113      .   S
    N37    O197      2.15511      .   S
    Zr198  O199      1.01439      .   S
    N30    O199      2.18554      .   S
    Zr198  O200      1.00048      .   S
    N11    O200      2.15192      .   S
    Zr198  O201      1.00336      .   S
    N20    O201      2.16031  1_455   S
    Zr198  O202      0.99654      .   S
    N4     O202      2.14384      .   S
    Zr203  O204      1.00008      .   S
    N47    O204      2.15292      .   S
    Zr203  O205      0.99612      .   S
    N9     O205      2.14424      .   S
    Zr203  O206      1.01309      .   S
    N21    O206      2.18402      .   S
    Zr203  O207      0.99502      .   S
    N32    O207      2.14115  1_565   S
    Zr208  O209      1.00319      .   S
    N34    O209      2.15992  1_454   S
    Zr208  O210      1.00067      .   S
    N12    O210      2.15247      .   S
    Zr208  O211      1.01435      .   S
    N25    O211      2.18540      .   S
    Zr208  O212      0.99605      .   S
    N17    O212      2.14235  1_554   S
    Zr213  O214      1.00047      .   S
    N31    O214      2.15336  1_565   S
    Zr213  O215      1.00105      .   S
    N40    O215      2.15321      .   S
    Zr213  O216      1.01618      .   S
    N23    O216      2.18953      .   S
    Zr213  O217      0.99522      .   S
    N27    O217      2.14045  1_565   S
    Zr218  O219      1.01618      .   S
    N24    O219      2.18953      .   S
    Zr218  O220      1.00038      .   S
    N8     O220      2.15322  1_665   S
    Zr218  O221      1.00105      .   S
    N35    O221      2.15321      .   S
    Zr218  O222      0.99522      .   S
    N22    O222      2.14045  1_565   S
    Zr223  O224      0.99591      .   S
    N28    O224      2.14228      .   S
    Zr223  O225      1.00062      .   S
    N24    O225      2.15232      .   S
    Zr223  O226      1.00332      .   S
    N6     O226      2.16018  1_655   S
    Zr223  O227      1.01440      .   S
    N26    O227      2.18554      .   S
    Zr228  O229      0.99632      .   S
    N41    O229      2.14453      .   S
    Zr228  O230      0.99502      .   S
    N15    O230      2.14108      .   S
    Zr228  O231      0.99997      .   S
    N2     O231      2.15264      .   S
    Zr228  O232      1.01313      .   S
    N43    O232      2.18416      .   S
    Zr233  O234      0.99644      .   S
    N23    O234      2.14403  1_545   S
    Zr233  O235      1.01208      .   S
    N47    O235      2.18149  1_545   S
    Zr233  O236      0.99875      .   S
    N13    O236      2.14892      .   S
    Zr233  O237      1.00539      .   S
    N4     O237      2.16493      .   S
    Zr238  O239      0.99610      .   S
    N18    O239      2.14423  1_655   S
    Zr238  O240      0.99493      .   S
    N12    O240      2.14092  1_655   S
    Zr238  O241      1.01315      .   S
    N0     O241      2.18422      .   S
    Zr238  O242      0.99994      .   S
    N33    O242      2.15260      .   S
    Zr243  O244      1.00113      .   S
    N42    O244      2.15511      .   S
    Zr243  O245      1.01231      .   S
    N9     O245      2.18192      .   S
    Zr243  O246      0.99411      .   S
    N1     O246      2.13915      .   S
    Zr243  O247      0.99816      .   S
    N39    O247      2.14847      .   S
    Zr248  O249      0.99564      .   S
    N26    O249      2.14197      .   S
    Zr248  O250      0.99934      .   S
    N0     O250      2.15047      .   S
    Zr248  O251      1.00494      .   S
    N42    O251      2.16404      .   S
    Zr248  O252      1.01179      .   S
    N36    O252      2.18082      .   S
    Zr253  O254      1.00048      .   S
    N32    O254      2.15192      .   S
    Zr253  O255      1.00345      .   S
    N13    O255      2.16045      .   S
    Zr253  O256      0.99632      .   S
    N5     O256      2.14318      .   S
    Zr253  O257      1.01439      .   S
    N29    O257      2.18554      .   S
    Zr258  O259      0.99838      .   S
    N40    O259      2.14871  1_554   S
    Zr258  O260      0.99390      .   S
    N21    O260      2.13884      .   S
    Zr258  O261      1.00108      .   S
    N19    O261      2.15499      .   S
    Zr258  O262      1.01222      .   S
    N14    O262      2.18174      .   S
    Zr263  O264      1.00085      .   S
    N30    O264      2.15316      .   S
    Zr263  O265      1.01628      .   S
    N12    O265      2.18975      .   S
    Zr263  O266      1.00045      .   S
    N0     O266      2.15341  1_455   S
    Zr263  O267      0.99564      .   S
    N3     O267      2.14111      .   S
    Zr268  O269      1.00550      .   S
    N17    O269      2.16534      .   S
    Zr268  O270      1.01227      .   S
    N38    O270      2.18189  1_556   S
    Zr268  O271      0.99636      .   S
    N15    O271      2.14380      .   S
    Zr268  O272      0.99881      .   S
    N41    O272      2.14906      .   S
    Zr273  O274      0.99822      .   S
    N25    O274      2.14872  1_656   S
    Zr273  O275      1.00108      .   S
    N22    O275      2.15501      .   S
    Zr273  O276      1.01223      .   S
    N34    O276      2.18172      .   S
    Zr273  O277      0.99404      .   S
    N8     O277      2.13897  1_655   S
    Zr278  O279      1.01222      .   S
    N18    O279      2.18174      .   S
    Zr278  O280      1.00108      .   S
    N46    O280      2.15499      .   S
    Zr278  O281      0.99383      .   S
    N45    O281      2.13874  1_455   S
    Zr278  O282      0.99831      .   S
    N35    O282      2.14857  1_454   S
    Zr283  O284      1.00011      .   S
    N28    O284      2.15302      .   S
    Zr283  O285      0.99494      .   S
    N11    O285      2.14101  1_665   S
    Zr283  O286      0.99606      .   S
    N6     O286      2.14415  1_655   S
    Zr283  O287      1.01309      .   S
    N45    O287      2.18402      .   S
