# CIF file generated by openbabel 2.4.90, see http://openbabel.sf.net
data_I
_chemical_name_common ''
_cell_length_a 12.124
_cell_length_b 15.264
_cell_length_c 15.916
_cell_angle_alpha 89.962
_cell_angle_beta 89.998
_cell_angle_gamma 89.986
_space_group_name_H-M_alt 'P 1'
_space_group_name_Hall 'P 1'
loop_
    _symmetry_equiv_pos_as_xyz
    x,y,z
loop_
    _atom_site_label
    _atom_site_type_symbol
    _atom_site_fract_x
    _atom_site_fract_y
    _atom_site_fract_z
    _atom_site_occupancy
    Cu0     Cu   0.66696   0.18496   0.50008   1.000
    Cu1     Cu   0.16694   0.31503   0.99996   1.000
    Cu2     Cu   1.00000   0.50000   0.99999   1.000
    Cu3     Cu   0.33299   0.81505   0.49993   1.000
    C4      C    0.94202   0.32795   0.80572   1.000
    C5      C    0.94204   0.32792   0.19427   1.000
    N6      N    0.98727   0.40615   0.90947   1.000
    N7      N    0.04725   0.33210   0.91137   1.000
    N8      N    0.02034   0.28139   0.84679   1.000
    N9      N    0.92064   0.40541   0.84360   1.000
    N10     N    0.98733   0.40613   0.09045   1.000
    N11     N    0.04719   0.33203   0.08856   1.000
    N12     N    0.02026   0.28131   0.15319   1.000
    N13     N    0.92075   0.40542   0.15636   1.000
    Cl14    Cl   0.27553   0.96590   0.49988   1.000
    Cl15    Cl   0.72444   0.03411   0.50011   1.000
    Cl16    Cl   0.22438   0.46586   0.99990   1.000
    Cl17    Cl   0.77561   0.53412   0.00000   1.000
    Ts18    Ts   0.62705   0.17927   0.52960   1.000
    Ts19    Ts   0.69990   0.20224   0.53068   1.000
    Ts20    Ts   0.62706   0.17928   0.47054   1.000
    Ts21    Ts   0.69992   0.20223   0.46947   1.000
    Ts22    Ts   0.19990   0.29774   0.96937   1.000
    Ts23    Ts   0.19990   0.29777   0.03058   1.000
    Ts24    Ts   0.00420   0.53129   0.96984   1.000
    Ts25    Ts   0.00424   0.53129   0.03016   1.000
    Ts26    Ts   0.37291   0.82072   0.52946   1.000
    Ts27    Ts   0.30004   0.79780   0.53055   1.000
    Ts28    Ts   0.37288   0.82074   0.47040   1.000
    Ts29    Ts   0.30005   0.79774   0.46934   1.000
    Ts30    Ts   0.92282   0.31780   0.78080   1.000
    Ts31    Ts   0.92284   0.31776   0.21920   1.000
loop_
    _geom_bond_atom_site_label_1
    _geom_bond_atom_site_label_2
    _geom_bond_distance
    _geom_bond_site_symmetry_2
    _ccdc_geom_bond_type
    N11    N10       1.34415  1_455   S
    N11    N12       1.32783      .   S
    N11    Cu1       2.04058  1_554   S
    N10    N13       1.32372      .   S
    N10    Cu2       2.03637  1_554   S
    N12    C5        1.35398  1_455   S
    N13    C5        1.35241      .   S
    Cl14   Cu3       2.40547      .   S
    Cu0    Cl15      2.40555      .   S
    C4     N9        1.35248      .   S
    C4     N8        1.35396  1_655   S
    N9     N6        1.32365      .   S
    N8     N7        1.32790      .   S
    N6     N7        1.34412  1_655   S
    N6     Cu2       2.03826      .   S
    N7     Cu1       2.03999      .   S
    Cl16   Cu1       2.40550      .   S
    Cu2    Cl17      2.76972  1_556   S
    Cu0    Ts18      0.67998      .   S
    Cu0    Ts19      0.68300      .   S
    Cu0    Ts20      0.68021      .   S
    Cu0    Ts21      0.68297      .   S
    Cu1    Ts22      0.68300      .   S
    Cu1    Ts23      0.68290  1_556   S
    Cu2    Ts24      0.67875  1_655   S
    Cu2    Ts25      0.67946  1_656   S
    Cu3    Ts26      0.68026      .   S
    Cu3    Ts27      0.68292      .   S
    Cu3    Ts28      0.67994      .   S
    Cu3    Ts29      0.68310      .   S
    C4     Ts30      0.48544      .   S
    C5     Ts31      0.48544      .   S
