# CIF file generated by openbabel 2.4.90, see http://openbabel.sf.net
data_I
_chemical_name_common ''
_cell_length_a 17.288
_cell_length_b 17.276
_cell_length_c 17.335
_cell_angle_alpha 85.834
_cell_angle_beta 86.336
_cell_angle_gamma 86.54
_space_group_name_H-M_alt 'P 1'
_space_group_name_Hall 'P 1'
loop_
    _symmetry_equiv_pos_as_xyz
    x,y,z
loop_
    _atom_site_label
    _atom_site_type_symbol
    _atom_site_fract_x
    _atom_site_fract_y
    _atom_site_fract_z
    _atom_site_occupancy
    Zn0     Zn   0.74958   0.88050   0.88660   1.000
    Zn1     Zn   0.88629   0.74980   0.88283   1.000
    Zn2     Zn   0.75645   0.75721   0.75664   1.000
    Zn3     Zn   0.11956   0.11296   0.25275   1.000
    Zn4     Zn   0.25041   0.11952   0.11339   1.000
    Zn5     Zn   0.11371   0.25023   0.11717   1.000
    Zn6     Zn   0.24353   0.24283   0.24335   1.000
    Zn7     Zn   0.88042   0.88706   0.74724   1.000
    O8      O    0.81841   0.81837   0.81806   1.000
    O9      O    0.18158   0.18164   0.18194   1.000
loop_
    _geom_bond_atom_site_label_1
    _geom_bond_atom_site_label_2
    _geom_bond_distance
    _geom_bond_site_symmetry_2
    _ccdc_geom_bond_type
    Zn4    O9        1.95712      .   S
    O9     Zn3       1.95911      .   S
    Zn7    O8        1.95918      .   S
    O8     Zn0       1.95710      .   S
    O8     Zn1       1.96168      .   S
    O8     Zn2       1.96042      .   S
    O9     Zn5       1.96171      .   S
    O9     Zn6       1.96048      .   S
