# CIF file generated by openbabel 2.4.90, see http://openbabel.sf.net
data_I
_chemical_name_common ''
_cell_length_a 17.288
_cell_length_b 17.276
_cell_length_c 17.335
_cell_angle_alpha 85.834
_cell_angle_beta 86.336
_cell_angle_gamma 86.54
_space_group_name_H-M_alt 'P 1'
_space_group_name_Hall 'P 1'
loop_
    _symmetry_equiv_pos_as_xyz
    x,y,z
loop_
    _atom_site_label
    _atom_site_type_symbol
    _atom_site_fract_x
    _atom_site_fract_y
    _atom_site_fract_z
    _atom_site_occupancy
    N0      N    0.82317   0.85700   0.31517   1.000
    N1      N    0.31525   0.82453   0.85668   1.000
    N2      N    0.17677   0.14302   0.68479   1.000
    N3      N    0.68475   0.17555   0.14323   1.000
    N4      N    0.14251   0.68392   0.17752   1.000
    N5      N    0.85748   0.31611   0.82238   1.000
    Zr6     Zr   0.81823   0.81859   0.81827   1.000
    Zr7     Zr   0.18176   0.18144   0.18172   1.000
    O8      O    0.18025   0.17324   0.02714   1.000
    O9      O    0.17943   0.17055   0.33794   1.000
    O10     O    0.82664   0.97302   0.81933   1.000
    O11     O    0.82910   0.66284   0.82056   1.000
    O12     O    0.66230   0.82110   0.82900   1.000
    O13     O    0.97246   0.82060   0.82662   1.000
    O14     O    0.81973   0.82679   0.97284   1.000
    O15     O    0.82055   0.82947   0.66205   1.000
    O16     O    0.33770   0.17895   0.17094   1.000
    O17     O    0.02753   0.17944   0.17336   1.000
    O18     O    0.17334   0.02701   0.18064   1.000
    O19     O    0.17089   0.33719   0.17941   1.000
loop_
    _geom_bond_atom_site_label_1
    _geom_bond_atom_site_label_2
    _geom_bond_distance
    _geom_bond_site_symmetry_2
    _ccdc_geom_bond_type
    N2     O8        5.99968  1_556   S
    Zr7    O8        2.69544      .   S
    N2     O9        5.99444      .   S
    Zr7    O9        2.69873      .   S
    Zr6    O10       2.68207      .   S
    N5     O10       5.98753  1_545   S
    Zr6    O11       2.68348      .   S
    N5     O11       5.97853      .   S
    Zr6    O12       2.68823      .   S
    N1     O12       5.98522      .   S
    Zr6    O13       2.68198      .   S
    N1     O13       5.98700  1_455   S
    Zr6    O14       2.69523      .   S
    N0     O14       5.99927  1_554   S
    Zr6    O15       2.69890      .   S
    N0     O15       5.99486      .   S
    N3     O16       5.98545      .   S
    Zr7    O16       2.68834      .   S
    N3     O17       5.98691  1_655   S
    Zr7    O17       2.68192      .   S
    N4     O18       5.98761  1_565   S
    Zr7    O18       2.68210      .   S
    N4     O19       5.97845      .   S
    Zr7    O19       2.68351      .   S
