# CIF file generated by openbabel 2.4.90, see http://openbabel.sf.net
data_I
_chemical_name_common ''
_cell_length_a 17.288
_cell_length_b 17.276
_cell_length_c 17.335
_cell_angle_alpha 85.834
_cell_angle_beta 86.336
_cell_angle_gamma 86.54
_space_group_name_H-M_alt 'P 1'
_space_group_name_Hall 'P 1'
loop_
    _symmetry_equiv_pos_as_xyz
    x,y,z
loop_
    _atom_site_label
    _atom_site_type_symbol
    _atom_site_fract_x
    _atom_site_fract_y
    _atom_site_fract_z
    _atom_site_occupancy
    N0      N    0.82317   0.85700   0.31517   1.000
    N1      N    0.31525   0.82453   0.85668   1.000
    N2      N    0.17677   0.14302   0.68479   1.000
    N3      N    0.68475   0.17555   0.14323   1.000
    N4      N    0.14251   0.68392   0.17752   1.000
    N5      N    0.85748   0.31611   0.82238   1.000
    Zr6     Zr   0.81823   0.81859   0.81827   1.000
    O7      O    0.97179   0.83625   0.81339   1.000
    O8      O    0.83939   0.97376   0.80349   1.000
    O9      O    0.83410   0.84315   0.66096   1.000
    O10     O    0.81390   0.97227   0.83517   1.000
    O11     O    0.66150   0.83435   0.84286   1.000
    O12     O    0.80414   0.83966   0.97330   1.000
    O13     O    0.97314   0.80494   0.83985   1.000
    O14     O    0.84268   0.66198   0.83430   1.000
    O15     O    0.83532   0.81392   0.97237   1.000
    O16     O    0.81552   0.66371   0.80682   1.000
    O17     O    0.66309   0.80786   0.81515   1.000
    O18     O    0.80700   0.81578   0.66314   1.000
    Zr19    Zr   0.18176   0.18144   0.18172   1.000
    O20     O    0.02820   0.16379   0.18658   1.000
    O21     O    0.16060   0.02626   0.19648   1.000
    O22     O    0.16588   0.15687   0.33902   1.000
    O23     O    0.16465   0.18610   0.02760   1.000
    O24     O    0.02686   0.19510   0.16013   1.000
    O25     O    0.15731   0.33805   0.16567   1.000
    O26     O    0.33850   0.16568   0.15711   1.000
    O27     O    0.18609   0.02775   0.16480   1.000
    O28     O    0.19585   0.16038   0.02668   1.000
    O29     O    0.33690   0.19223   0.18477   1.000
    O30     O    0.18446   0.33632   0.19316   1.000
    O31     O    0.19297   0.18424   0.33685   1.000
loop_
    _geom_bond_atom_site_label_1
    _geom_bond_atom_site_label_2
    _geom_bond_distance
    _geom_bond_site_symmetry_2
    _ccdc_geom_bond_type
    Zr6    O7        2.68567      .   S
    N1     O7        6.02205  1_455   S
    Zr6    O8        2.71892      .   S
    N5     O8        5.97526  1_545   S
    Zr6    O9        2.72801      .   S
    N0     O9        5.99630      .   S
    Zr6    O10       2.68829      .   S
    N5     O10       6.01912  1_545   S
    Zr6    O11       2.71617      .   S
    N1     O11       5.98750      .   S
    Zr6    O12       2.73163      .   S
    N0     O12       5.98649  1_554   S
    Zr6    O13       2.72154      .   S
    N1     O13       5.97133  1_455   S
    Zr6    O14       2.71001      .   S
    N5     O14       5.98318      .   S
    Zr6    O15       2.70121      .   S
    N0     O15       6.03110  1_554   S
    Zr6    O16       2.70084      .   S
    N5     O16       5.99364      .   S
    Zr6    O17       2.70376      .   S
    N1     O17       6.00252      .   S
    Zr6    O18       2.71278      .   S
    N0     O18       6.01284      .   S
    Zr19   O20       2.68564      .   S
    N3     O20       6.02194  1_655   S
    Zr19   O21       2.71892      .   S
    N4     O21       5.97538  1_565   S
    Zr19   O22       2.72790      .   S
    N2     O22       5.99583      .   S
    Zr19   O23       2.70153      .   S
    N2     O23       6.03139  1_556   S
    Zr19   O24       2.72145      .   S
    N3     O24       5.97126  1_655   S
    Zr19   O25       2.71006      .   S
    N4     O25       5.98307      .   S
    Zr19   O26       2.71634      .   S
    N3     O26       5.98771      .   S
    Zr19   O27       2.68834      .   S
    N4     O27       6.01915  1_565   S
    Zr19   O28       2.73172      .   S
    N2     O28       5.98703  1_556   S
    Zr19   O29       2.70383      .   S
    N3     O29       6.00278      .   S
    Zr19   O30       2.70084      .   S
    N4     O30       5.99360      .   S
    Zr19   O31       2.71258      .   S
    N2     O31       6.01247      .   S
