# CIF file generated by openbabel 2.4.90, see http://openbabel.sf.net
data_I
_chemical_name_common ''
_cell_length_a 17.288
_cell_length_b 17.276
_cell_length_c 17.335
_cell_angle_alpha 85.834
_cell_angle_beta 86.336
_cell_angle_gamma 86.54
_space_group_name_H-M_alt 'P 1'
_space_group_name_Hall 'P 1'
loop_
    _symmetry_equiv_pos_as_xyz
    x,y,z
loop_
    _atom_site_label
    _atom_site_type_symbol
    _atom_site_fract_x
    _atom_site_fract_y
    _atom_site_fract_z
    _atom_site_occupancy
    Zr0     Zr   0.88042   0.88706   0.74724   1.000
    Zr1     Zr   0.74958   0.88050   0.88660   1.000
    Zr2     Zr   0.88629   0.74980   0.88283   1.000
    Zr3     Zr   0.75645   0.75721   0.75664   1.000
    Zr4     Zr   0.11956   0.11296   0.25275   1.000
    Zr5     Zr   0.25041   0.11952   0.11339   1.000
    Zr6     Zr   0.11371   0.25023   0.11717   1.000
    Zr7     Zr   0.24353   0.24283   0.24335   1.000
    Zr8     Zr   0.81841   0.81837   0.81806   1.000
    Zr9     Zr   0.18158   0.18164   0.18194   1.000
    O10     O    0.21600   0.15058   0.14766   1.000
    O11     O    0.15057   0.14730   0.21734   1.000
    O12     O    0.84941   0.85272   0.78265   1.000
    O13     O    0.78400   0.84943   0.85233   1.000
    O14     O    0.85235   0.78408   0.85044   1.000
    O15     O    0.78743   0.78779   0.78735   1.000
    O16     O    0.14765   0.21593   0.14955   1.000
    O17     O    0.21256   0.21223   0.21264   1.000
    N18     N    0.82317   0.85700   0.31517   1.000
    O19     O    0.79578   0.81298   0.50800   1.000
    O20     O    0.84997   0.86772   0.50365   1.000
    O21     O    0.79005   0.86073   0.12833   1.000
    O22     O    0.85242   0.80926   0.12647   1.000
    N23     N    0.31525   0.82453   0.85668   1.000
    O24     O    0.50796   0.79713   0.81203   1.000
    O25     O    0.50477   0.85011   0.86744   1.000
    O26     O    0.12805   0.79130   0.86142   1.000
    O27     O    0.12534   0.85391   0.80851   1.000
    N28     N    0.17677   0.14302   0.68479   1.000
    O29     O    0.14754   0.19076   0.87349   1.000
    O30     O    0.20419   0.18704   0.49198   1.000
    O31     O    0.14999   0.13230   0.49633   1.000
    O32     O    0.20993   0.13932   0.87165   1.000
    N33     N    0.68475   0.17555   0.14323   1.000
    O34     O    0.49204   0.20302   0.18781   1.000
    O35     O    0.49524   0.14992   0.13251   1.000
    O36     O    0.87195   0.20876   0.13853   1.000
    O37     O    0.87465   0.14615   0.19145   1.000
    N38     N    0.14251   0.68392   0.17752   1.000
    O39     O    0.18716   0.49120   0.20459   1.000
    O40     O    0.13286   0.49467   0.14962   1.000
    O41     O    0.13943   0.87109   0.21124   1.000
    O42     O    0.19042   0.87407   0.14788   1.000
    N43     N    0.85748   0.31611   0.82238   1.000
    O44     O    0.81282   0.50883   0.79536   1.000
    O45     O    0.86713   0.50536   0.85033   1.000
    O46     O    0.86055   0.12893   0.78871   1.000
    O47     O    0.80956   0.12596   0.85206   1.000
loop_
    _geom_bond_atom_site_label_1
    _geom_bond_atom_site_label_2
    _geom_bond_distance
    _geom_bond_site_symmetry_2
    _ccdc_geom_bond_type
    Zr5    O10       0.97856      .   S
    Zr9    O10       0.97856      .   S
    Zr9    O11       0.97955      .   S
    Zr4    O11       0.97955      .   S
    Zr0    O12       0.97959      .   S
    Zr8    O12       0.97959      .   S
    Zr8    O13       0.97855      .   S
    Zr1    O13       0.97855      .   S
    Zr8    O14       0.98084      .   S
    Zr2    O14       0.98084      .   S
    Zr8    O15       0.98021      .   S
    Zr3    O15       0.98021      .   S
    Zr9    O16       0.98086      .   S
    Zr6    O16       0.98086      .   S
    Zr9    O17       0.98024      .   S
    Zr7    O17       0.98024      .   S
    N18    O19       3.38344      .   S
    Zr3    O19       4.36687      .   S
    N18    O20       3.34905      .   S
    Zr0    O20       4.32774      .   S
    N18    O21       3.32034      .   S
    Zr1    O21       4.27824  1_556   S
    N18    O22       3.43019      .   S
    Zr2    O22       4.41338  1_556   S
    N23    O24       3.38451      .   S
    Zr3    O24       4.36617      .   S
    N23    O25       3.35101      .   S
    Zr1    O25       4.33269      .   S
    N23    O26       3.31565      .   S
    Zr2    O26       4.27152  1_655   S
    N23    O27       3.43833      .   S
    Zr0    O27       4.42478  1_655   S
    N28    O29       3.43014      .   S
    Zr6    O29       4.41403  1_554   S
    N28    O30       3.38330      .   S
    Zr7    O30       4.36669      .   S
    N28    O31       3.34869      .   S
    Zr4    O31       4.32749      .   S
    N28    O32       3.32080      .   S
    Zr5    O32       4.27851  1_554   S
    N33    O34       3.38462      .   S
    Zr7    O34       4.36661      .   S
    N33    O35       3.35113      .   S
    Zr5    O35       4.33271      .   S
    N33    O36       3.31566      .   S
    Zr6    O36       4.27131  1_455   S
    N33    O37       3.43831      .   S
    Zr4    O37       4.42476  1_455   S
    N38    O39       3.37778      .   S
    Zr7    O39       4.35589      .   S
    N38    O40       3.35513      .   S
    Zr6    O40       4.33554      .   S
    N38    O41       3.32433      .   S
    Zr4    O41       4.28109  1_545   S
    N38    O42       3.43084      .   S
    Zr5    O42       4.41565  1_545   S
    N43    O44       3.37781      .   S
    Zr3    O44       4.35589      .   S
    N43    O45       3.35534      .   S
    Zr2    O45       4.33575      .   S
    N43    O46       3.32416      .   S
    Zr0    O46       4.28097  1_565   S
    N43    O47       3.43090      .   S
    Zr1    O47       4.41567  1_565   S
