# CIF file generated by openbabel 2.4.90, see http://openbabel.sf.net
data_I
_chemical_name_common ''
_cell_length_a 8.919
_cell_length_b 10.1035
_cell_length_c 15.051
_cell_angle_alpha 90.021
_cell_angle_beta 90.193
_cell_angle_gamma 90.165
_space_group_name_H-M_alt 'P 1'
_space_group_name_Hall 'P 1'
loop_
    _symmetry_equiv_pos_as_xyz
    x,y,z
loop_
    _atom_site_label
    _atom_site_type_symbol
    _atom_site_fract_x
    _atom_site_fract_y
    _atom_site_fract_z
    _atom_site_occupancy
    P0      P    0.00014   0.13518   0.28479   1.000
    P1      P    0.99594   0.36474   0.78589   1.000
    P2      P    0.49852   0.86471   0.21634   1.000
    P3      P    0.49662   0.63548   0.71680   1.000
    H4      H    0.19443   0.26949   0.32122   1.000
    H5      H    0.80303   0.23007   0.82181   1.000
    H6      H    0.69111   0.73013   0.17981   1.000
    H7      H    0.30373   0.77008   0.68141   1.000
    N8      N    0.72896   0.26076   0.28557   1.000
    N9      N    0.26756   0.23995   0.78500   1.000
    N10     N    0.22647   0.73950   0.21589   1.000
    N11     N    0.76894   0.76072   0.71728   1.000
    O12     O    0.08662   0.23806   0.34337   1.000
    O13     O    0.91111   0.26074   0.84407   1.000
    O14     O    0.58294   0.76102   0.15810   1.000
    O15     O    0.41131   0.73943   0.65892   1.000
loop_
    _geom_bond_atom_site_label_1
    _geom_bond_atom_site_label_2
    _geom_bond_distance
    _geom_bond_site_symmetry_2
    _ccdc_geom_bond_type
    O14    H6        1.06521      .   S
    O14    P2        1.56244      .   S
    P0     O12       1.56294      .   S
    H4     O12       1.06637      .   S
    O15    H7        1.06531      .   S
    O15    P3        1.56261      .   S
    P1     O13       1.56334      .   S
    H5     O13       1.06459      .   S
