# CIF file generated by openbabel 2.4.90, see http://openbabel.sf.net
data_I
_chemical_name_common ''
_cell_length_a 8.919
_cell_length_b 10.1035
_cell_length_c 15.051
_cell_angle_alpha 90.021
_cell_angle_beta 90.193
_cell_angle_gamma 90.165
_space_group_name_H-M_alt 'P 1'
_space_group_name_Hall 'P 1'
loop_
    _symmetry_equiv_pos_as_xyz
    x,y,z
loop_
    _atom_site_label
    _atom_site_type_symbol
    _atom_site_fract_x
    _atom_site_fract_y
    _atom_site_fract_z
    _atom_site_occupancy
    Lv0     Lv   0.22647   0.73950   0.21589   1.000
    Lv1     Lv   0.59086   0.78529   0.18475   1.000
    Lv2     Lv   0.40388   0.71500   0.68571   1.000
    Lv3     Lv   0.76894   0.76072   0.71728   1.000
    Lv4     Lv   0.90336   0.28519   0.81726   1.000
    Lv5     Lv   0.26756   0.23995   0.78500   1.000
    Lv6     Lv   0.09373   0.21424   0.31646   1.000
    Lv7     Lv   0.72896   0.26076   0.28557   1.000
