# CIF file generated by openbabel 2.4.90, see http://openbabel.sf.net
data_I
_chemical_name_common ''
_cell_length_a 8.919
_cell_length_b 10.1035
_cell_length_c 15.051
_cell_angle_alpha 90.021
_cell_angle_beta 90.193
_cell_angle_gamma 90.165
_space_group_name_H-M_alt 'P 1'
_space_group_name_Hall 'P 1'
loop_
    _symmetry_equiv_pos_as_xyz
    x,y,z
loop_
    _atom_site_label
    _atom_site_type_symbol
    _atom_site_fract_x
    _atom_site_fract_y
    _atom_site_fract_z
    _atom_site_occupancy
    P0      P    0.00014   0.13518   0.28479   1.000
    P1      P    0.99594   0.36474   0.78589   1.000
    P2      P    0.49852   0.86471   0.21634   1.000
    P3      P    0.49662   0.63548   0.71680   1.000
    H4      H    0.80652   0.15008   0.17656   1.000
    H5      H    0.89635   0.30702   0.18648   1.000
    H6      H    0.86940   0.42834   0.31384   1.000
    H7      H    0.67880   0.45361   0.33450   1.000
    H8      H    0.57608   0.37567   0.20550   1.000
    H9      H    0.57158   0.20166   0.18800   1.000
    H10     H    0.19443   0.26949   0.32122   1.000
    H11     H    0.18748   0.35179   0.67690   1.000
    H12     H    0.09826   0.19449   0.68615   1.000
    H13     H    0.12955   0.07045   0.81202   1.000
    H14     H    0.32041   0.04760   0.83365   1.000
    H15     H    0.41950   0.12627   0.70406   1.000
    H16     H    0.42373   0.30059   0.68775   1.000
    H17     H    0.80303   0.23007   0.82181   1.000
    H18     H    0.30613   0.85043   0.32475   1.000
    H19     H    0.39479   0.69340   0.31493   1.000
    H20     H    0.36226   0.56888   0.18946   1.000
    H21     H    0.17157   0.54836   0.16559   1.000
    H22     H    0.07341   0.62569   0.29641   1.000
    H23     H    0.07019   0.79996   0.31285   1.000
    H24     H    0.69111   0.73013   0.17981   1.000
    H25     H    0.68975   0.64929   0.82559   1.000
    H26     H    0.60100   0.80632   0.81604   1.000
    H27     H    0.63146   0.92990   0.68951   1.000
    H28     H    0.82241   0.95296   0.66840   1.000
    H29     H    0.92215   0.87479   0.79829   1.000
    H30     H    0.92514   0.70060   0.81501   1.000
    H31     H    0.30373   0.77008   0.68141   1.000
    C32     C    0.85150   0.22232   0.22441   1.000
    C33     C    0.76840   0.37933   0.33951   1.000
    C34     C    0.58389   0.27905   0.23907   1.000
    C35     C    0.14369   0.27883   0.72444   1.000
    C36     C    0.22958   0.12071   0.83834   1.000
    C37     C    0.41201   0.22244   0.73826   1.000
    C38     C    0.35002   0.77805   0.27697   1.000
    C39     C    0.26407   0.62049   0.16232   1.000
    C40     C    0.08169   0.72187   0.26229   1.000
    C41     C    0.64559   0.72190   0.77791   1.000
    C42     C    0.73121   0.87971   0.66357   1.000
    C43     C    0.91378   0.77847   0.76427   1.000
    N44     N    0.72896   0.26076   0.28557   1.000
    N45     N    0.26756   0.23995   0.78500   1.000
    N46     N    0.22647   0.73950   0.21589   1.000
    N47     N    0.76894   0.76072   0.71728   1.000
    O48     O    0.08662   0.23806   0.34337   1.000
    O49     O    0.10185   0.07142   0.21557   1.000
    O50     O    0.91550   0.03764   0.34475   1.000
    O51     O    0.91111   0.26074   0.84407   1.000
    O52     O    0.89202   0.42889   0.71768   1.000
    O53     O    0.08126   0.46192   0.84611   1.000
    O54     O    0.58294   0.76102   0.15810   1.000
    O55     O    0.60207   0.92847   0.28519   1.000
    O56     O    0.41414   0.96222   0.15622   1.000
    O57     O    0.41131   0.73943   0.65892   1.000
    O58     O    0.39367   0.57116   0.78530   1.000
    O59     O    0.58053   0.53858   0.65627   1.000
loop_
    _geom_bond_atom_site_label_1
    _geom_bond_atom_site_label_2
    _geom_bond_distance
    _geom_bond_site_symmetry_2
    _ccdc_geom_bond_type
    O56    P2        1.53493      .   S
    O54    H24       1.06521      .   S
    O54    P2        1.56244      .   S
    C39    H21       1.10040      .   S
    C39    H20       1.09822      .   S
    C39    N46       1.48722      .   S
    H4     C32       1.09930      .   S
    H5     C32       1.10372      .   S
    H9     C34       1.10128      .   S
    H8     C34       1.10168      .   S
    O49    P0        1.52724      .   S
    N46    C40       1.48050      .   S
    N46    C38       1.48372      .   S
    P2     C38       1.83180      .   S
    P2     O55       1.52696      .   S
    C32    P0        1.83239  1_655   S
    C32    N44       1.48384      .   S
    C34    N44       1.48102      .   S
    C40    H22       1.10167      .   S
    C40    H23       1.10125      .   S
    C38    H19       1.10374      .   S
    C38    H18       1.09927      .   S
    P0     O48       1.56294      .   S
    P0     O50       1.53507  1_455   S
    N44    C33       1.48750      .   S
    H6     C33       1.09812      .   S
    H10    O48       1.06637      .   S
    H7     C33       1.10022      .   S
    O59    P3        1.53517      .   S
    O57    H31       1.06531      .   S
    O57    P3        1.56261      .   S
    C42    H28       1.10032      .   S
    C42    H27       1.09809      .   S
    C42    N47       1.48777      .   S
    H11    C35       1.09934      .   S
    H12    C35       1.10380      .   S
    H16    C37       1.10120      .   S
    H15    C37       1.10170      .   S
    P3     C41       1.83247      .   S
    P3     O58       1.52696      .   S
    N47    C43       1.48100      .   S
    N47    C41       1.48380      .   S
    O52    P1        1.52668      .   S
    C35    N45       1.48371      .   S
    C35    P1        1.83290  1_455   S
    C37    N45       1.48102      .   S
    C43    H29       1.10166      .   S
    C43    H30       1.10126      .   S
    C41    H26       1.10373      .   S
    C41    H25       1.09932      .   S
    N45    C36       1.48683      .   S
    P1     O51       1.56334      .   S
    P1     O53       1.53463  1_655   S
    H13    C36       1.09808      .   S
    H17    O51       1.06459      .   S
    H14    C36       1.10027      .   S
