# CIF file generated by openbabel 2.4.90, see http://openbabel.sf.net
data_I
_chemical_name_common ''
_cell_length_a 8.919
_cell_length_b 10.1035
_cell_length_c 15.051
_cell_angle_alpha 90.021
_cell_angle_beta 90.193
_cell_angle_gamma 90.165
_space_group_name_H-M_alt 'P 1'
_space_group_name_Hall 'P 1'
loop_
    _symmetry_equiv_pos_as_xyz
    x,y,z
loop_
    _atom_site_label
    _atom_site_type_symbol
    _atom_site_fract_x
    _atom_site_fract_y
    _atom_site_fract_z
    _atom_site_occupancy
    Y0      Y    0.31543   0.44010   0.89161   1.000
    Y1      Y    0.18045   0.94002   0.10971   1.000
    Y2      Y    0.81461   0.55997   0.61118   1.000
    Y3      Y    0.68230   0.05949   0.39126   1.000
    C4      C    0.79183   0.35259   0.43817   1.000
    C5      C    0.45166   0.25860   0.30212   1.000
    C6      C    0.20602   0.14650   0.93697   1.000
    C7      C    0.54476   0.24189   0.80168   1.000
    C8      C    0.29065   0.64725   0.06405   1.000
    C9      C    0.94927   0.74146   0.19878   1.000
    C10     C    0.70741   0.85338   0.56485   1.000
    C11     C    0.04612   0.75834   0.70133   1.000
    O12     O    0.76280   0.24015   0.47026   1.000
    O13     O    0.83686   0.45118   0.48433   1.000
    O14     O    0.33194   0.31905   0.28452   1.000
    O15     O    0.47106   0.17743   0.36661   1.000
    O16     O    0.23604   0.25831   0.96994   1.000
    O17     O    0.16036   0.04744   0.98222   1.000
    O18     O    0.66428   0.18148   0.78419   1.000
    O19     O    0.52559   0.32227   0.86664   1.000
    O20     O    0.26184   0.75936   0.03148   1.000
    O21     O    0.33719   0.54889   0.01859   1.000
    O22     O    0.82936   0.68112   0.21645   1.000
    O23     O    0.96894   0.82179   0.13383   1.000
    O24     O    0.73626   0.74113   0.53255   1.000
    O25     O    0.66259   0.95194   0.51887   1.000
    O26     O    0.16623   0.81869   0.71900   1.000
    O27     O    0.02603   0.67747   0.63663   1.000
loop_
    _geom_bond_atom_site_label_1
    _geom_bond_atom_site_label_2
    _geom_bond_distance
    _geom_bond_site_symmetry_2
    _ccdc_geom_bond_type
    O21    C8        1.27734      .   S
    O21    Y0        2.21205  1_554   S
    O20    C8        1.26116      .   S
    O20    Y1        2.29282      .   S
    Y1     O23       2.26039  1_455   S
    Y1     O17       2.21195  1_564   S
    O23    C9        1.28300      .   S
    C9     O22       1.25872      .   S
    O14    C5        1.25911      .   S
    C5     O15       1.28256      .   S
    O15    Y3        2.26176      .   S
    Y3     O12       2.29047      .   S
    Y3     O25       2.21429  1_545   S
    C4     O12       1.26120      .   S
    C4     O13       1.27735      .   S
    O13    Y2        2.21245      .   S
    O25    C10       1.27716      .   S
    O24    C10       1.26131      .   S
    O24    Y2        2.28956      .   S
    Y2     O27       2.25697  1_655   S
    O27    C11       1.28272      .   S
    C11    O26       1.25868      .   S
    O18    C7        1.25847      .   S
    C7     O19       1.28299      .   S
    O19    Y0        2.25596      .   S
    Y0     O16       2.29438      .   S
    C6     O16       1.26138      .   S
    C6     O17       1.27724      .   S
