# CIF file generated by openbabel 2.4.90, see http://openbabel.sf.net
data_I
_chemical_name_common ''
_cell_length_a 8.919
_cell_length_b 10.1035
_cell_length_c 15.051
_cell_angle_alpha 90.021
_cell_angle_beta 90.193
_cell_angle_gamma 90.165
_space_group_name_H-M_alt 'P 1'
_space_group_name_Hall 'P 1'
loop_
    _symmetry_equiv_pos_as_xyz
    x,y,z
loop_
    _atom_site_label
    _atom_site_type_symbol
    _atom_site_fract_x
    _atom_site_fract_y
    _atom_site_fract_z
    _atom_site_occupancy
    C0      C    0.79183   0.35259   0.43817   1.000
    C1      C    0.45166   0.25860   0.30212   1.000
    C2      C    0.20602   0.14650   0.93697   1.000
    C3      C    0.54476   0.24189   0.80168   1.000
    C4      C    0.29065   0.64725   0.06405   1.000
    C5      C    0.94927   0.74146   0.19878   1.000
    C6      C    0.70741   0.85338   0.56485   1.000
    C7      C    0.04612   0.75834   0.70133   1.000
