# CIF file generated by openbabel 2.4.90, see http://openbabel.sf.net
data_I
_chemical_name_common ''
_cell_length_a 8.919
_cell_length_b 10.1035
_cell_length_c 15.051
_cell_angle_alpha 90.021
_cell_angle_beta 90.193
_cell_angle_gamma 90.165
_space_group_name_H-M_alt 'P 1'
_space_group_name_Hall 'P 1'
loop_
    _symmetry_equiv_pos_as_xyz
    x,y,z
loop_
    _atom_site_label
    _atom_site_type_symbol
    _atom_site_fract_x
    _atom_site_fract_y
    _atom_site_fract_z
    _atom_site_occupancy
    Zr0     Zr   0.68230   0.05949   0.39126   1.000
    Zr1     Zr   0.31543   0.44010   0.89161   1.000
    Zr2     Zr   0.18045   0.94002   0.10971   1.000
    Zr3     Zr   0.81461   0.55997   0.61118   1.000
    Zr4     Zr   0.79183   0.35259   0.43817   1.000
    Zr5     Zr   0.45166   0.25860   0.30212   1.000
    Zr6     Zr   0.20602   0.14650   0.93697   1.000
    Zr7     Zr   0.54476   0.24189   0.80168   1.000
    Zr8     Zr   0.29065   0.64725   0.06405   1.000
    Zr9     Zr   0.94927   0.74146   0.19878   1.000
    Zr10    Zr   0.70741   0.85338   0.56485   1.000
    Zr11    Zr   0.04612   0.75834   0.70133   1.000
    Zr12    Zr   0.76280   0.24015   0.47026   1.000
    Zr13    Zr   0.83686   0.45118   0.48433   1.000
    Zr14    Zr   0.33194   0.31905   0.28452   1.000
    Zr15    Zr   0.47106   0.17743   0.36661   1.000
    Zr16    Zr   0.23604   0.25831   0.96994   1.000
    Zr17    Zr   0.16036   0.04744   0.98222   1.000
    Zr18    Zr   0.66428   0.18148   0.78419   1.000
    Zr19    Zr   0.52559   0.32227   0.86664   1.000
    Zr20    Zr   0.26184   0.75936   0.03148   1.000
    Zr21    Zr   0.33719   0.54889   0.01859   1.000
    Zr22    Zr   0.82936   0.68112   0.21645   1.000
    Zr23    Zr   0.96894   0.82179   0.13383   1.000
    Zr24    Zr   0.73626   0.74113   0.53255   1.000
    Zr25    Zr   0.66259   0.95194   0.51887   1.000
    Zr26    Zr   0.16623   0.81869   0.71900   1.000
    Zr27    Zr   0.02603   0.67747   0.63663   1.000
    O28     O    0.31392   0.59807   0.04132   1.000
    O29     O    0.32631   0.49450   0.95510   1.000
    O30     O    0.27625   0.70330   0.04776   1.000
    O31     O    0.22115   0.84969   0.07059   1.000
    O32     O    0.07470   0.88090   0.12177   1.000
    O33     O    0.17041   0.99373   0.04597   1.000
    O34     O    0.95910   0.78163   0.16631   1.000
    O35     O    0.88931   0.71129   0.20762   1.000
    O36     O    0.39180   0.28882   0.29332   1.000
    O37     O    0.46136   0.21802   0.33437   1.000
    O38     O    0.57668   0.11846   0.37894   1.000
    O39     O    0.72255   0.14982   0.43076   1.000
    O40     O    0.67244   0.00571   0.45507   1.000
    O41     O    0.77732   0.29637   0.45422   1.000
    O42     O    0.81435   0.40188   0.46125   1.000
    O43     O    0.82574   0.50558   0.54776   1.000
    O44     O    0.68500   0.90266   0.54186   1.000
    O45     O    0.72183   0.79725   0.54870   1.000
    O46     O    0.77543   0.65055   0.57187   1.000
    O47     O    0.92032   0.61872   0.62390   1.000
    O48     O    0.03608   0.71790   0.66898   1.000
    O49     O    0.10618   0.78851   0.71017   1.000
    O50     O    0.60452   0.21168   0.79294   1.000
    O51     O    0.53518   0.28208   0.83416   1.000
    O52     O    0.42051   0.38118   0.87913   1.000
    O53     O    0.27574   0.34921   0.93077   1.000
    O54     O    0.22103   0.20241   0.95345   1.000
    O55     O    0.18319   0.09697   0.95959   1.000
    N56     N    0.22647   0.73950   0.21589   1.000
    O57     O    0.21497   0.78963   0.18935   1.000
    N58     N    0.59086   0.78529   0.18475   1.000
    O59     O    0.04529   0.72375   0.26053   1.000
    O60     O    0.62213   0.96122   0.31171   1.000
    O61     O    0.27166   0.60655   0.14282   1.000
    O62     O    0.35572   0.95667   0.14459   1.000
    O63     O    0.30384   0.76155   0.26836   1.000
    N64     N    0.40388   0.71500   0.68571   1.000
    N65     N    0.76894   0.76072   0.71728   1.000
    O66     O    0.78036   0.71053   0.69075   1.000
    O67     O    0.37411   0.53840   0.81188   1.000
    O68     O    0.72383   0.89370   0.64402   1.000
    O69     O    0.63905   0.54393   0.64500   1.000
    O70     O    0.95015   0.77651   0.76266   1.000
    O71     O    0.56647   0.71134   0.76153   1.000
    N72     N    0.90336   0.28519   0.81726   1.000
    N73     N    0.26756   0.23995   0.78500   1.000
    O74     O    0.27952   0.28998   0.81165   1.000
    O75     O    0.44840   0.22430   0.74000   1.000
    O76     O    0.22216   0.10660   0.85783   1.000
    O77     O    0.87266   0.46166   0.69105   1.000
    O78     O    0.13980   0.45646   0.85749   1.000
    O79     O    0.06487   0.28926   0.74102   1.000
    N80     N    0.09373   0.21424   0.31646   1.000
    N81     N    0.72896   0.26076   0.28557   1.000
    O82     O    0.71729   0.21044   0.31200   1.000
    O83     O    0.54748   0.27714   0.24073   1.000
    O84     O    0.77616   0.39319   0.35906   1.000
    O85     O    0.85720   0.04310   0.35638   1.000
    O86     O    0.12150   0.03857   0.18911   1.000
    O87     O    0.80553   0.23881   0.23305   1.000
loop_
    _geom_bond_atom_site_label_1
    _geom_bond_atom_site_label_2
    _geom_bond_distance
    _geom_bond_site_symmetry_2
    _ccdc_geom_bond_type
    Zr21   O28       0.63867      .   S
    Zr8    O28       0.63867      .   S
    Zr21   O29       1.10602  1_554   S
    Zr1    O29       1.10602      .   S
    Zr20   O30       0.63058      .   S
    Zr8    O30       0.63058      .   S
    Zr20   O31       1.14641      .   S
    Zr2    O31       1.14641      .   S
    Zr2    O32       1.13019      .   S
    Zr23   O32       1.13019  1_655   S
    Zr2    O33       1.10597      .   S
    Zr17   O33       1.10597  1_546   S
    Zr23   O34       0.64150      .   S
    Zr9    O34       0.64150      .   S
    Zr9    O35       0.62936      .   S
    Zr22   O35       0.62936      .   S
    Zr14   O36       0.62955      .   S
    Zr5    O36       0.62955      .   S
    Zr5    O37       0.64128      .   S
    Zr15   O37       0.64128      .   S
    Zr15   O38       1.13088      .   S
    Zr0    O38       1.13088      .   S
    Zr0    O39       1.14524      .   S
    Zr12   O39       1.14524      .   S
    Zr0    O40       1.10714      .   S
    Zr25   O40       1.10714  1_565   S
    Zr4    O41       0.63060      .   S
    Zr12   O41       0.63060      .   S
    Zr4    O42       0.63868      .   S
    Zr13   O42       0.63868      .   S
    Zr13   O43       1.10622      .   S
    Zr3    O43       1.10622      .   S
    Zr25   O44       0.63858      .   S
    Zr10   O44       0.63858      .   S
    Zr24   O45       0.63066      .   S
    Zr10   O45       0.63066      .   S
    Zr24   O46       1.14478      .   S
    Zr3    O46       1.14478      .   S
    Zr3    O47       1.12848      .   S
    Zr27   O47       1.12848  1_455   S
    Zr27   O48       0.64136      .   S
    Zr11   O48       0.64136      .   S
    Zr11   O49       0.62934      .   S
    Zr26   O49       0.62934      .   S
    Zr18   O50       0.62923      .   S
    Zr7    O50       0.62923      .   S
    Zr7    O51       0.64149      .   S
    Zr19   O51       0.64149      .   S
    Zr19   O52       1.12798      .   S
    Zr1    O52       1.12798      .   S
    Zr1    O53       1.14719      .   S
    Zr16   O53       1.14719      .   S
    Zr6    O54       0.63069      .   S
    Zr16   O54       0.63069      .   S
    Zr6    O55       0.63862      .   S
    Zr17   O55       0.63862      .   S
    N56    O57       0.65334      .   S
    Zr2    O57       1.96001      .   S
    N56    O59       1.75900      .   S
    Zr9    O59       1.27466  1_655   S
    N58    O60       2.62300      .   S
    Zr0    O60       1.64286  1_545   S
    N56    O61       1.78359      .   S
    Zr8    O61       1.26678      .   S
    N58    O62       2.78835      .   S
    Zr2    O62       1.65542      .   S
    N58    O63       2.86575      .   S
    N56    O63       1.06986      .   S
    N65    O66       0.65368      .   S
    Zr3    O66       1.96103      .   S
    N64    O67       2.61977      .   S
    Zr1    O67       1.64394      .   S
    N65    O68       1.78444      .   S
    Zr10   O68       1.26703      .   S
    N64    O69       2.79118      .   S
    Zr3    O69       1.65562      .   S
    N65    O70       1.75928      .   S
    Zr11   O70       1.27455  1_455   S
    N65    O71       1.98915      .   S
    N64    O71       1.84265      .   S
    N73    O74       0.65359      .   S
    Zr1    O74       1.96077      .   S
    N73    O75       1.75900      .   S
    Zr7    O75       1.27510      .   S
    N73    O76       1.78373      .   S
    Zr6    O76       1.26618      .   S
    N72    O77       2.61991      .   S
    Zr3    O77       1.64308      .   S
    N72    O78       2.78892  1_655   S
    Zr1    O78       1.65554      .   S
    N73    O79       1.98789      .   S
    N72    O79       1.84502  1_655   S
    N81    O82       0.65389      .   S
    Zr0    O82       1.96167      .   S
    N81    O83       1.75989      .   S
    Zr5    O83       1.27433      .   S
    N81    O84       1.78419      .   S
    Zr4    O84       1.26686      .   S
    N80    O85       2.79096  1_455   S
    Zr0    O85       1.65637      .   S
    N80    O86       2.62471      .   S
    Zr2    O86       1.64387  1_565   S
    N80    O87       2.86833  1_455   S
    N81    O87       1.06998      .   S
