# CIF file generated by openbabel 2.4.90, see http://openbabel.sf.net
data_I
_chemical_name_common ''
_cell_length_a 8.919
_cell_length_b 10.1035
_cell_length_c 15.051
_cell_angle_alpha 90.021
_cell_angle_beta 90.193
_cell_angle_gamma 90.165
_space_group_name_H-M_alt 'P 1'
_space_group_name_Hall 'P 1'
loop_
    _symmetry_equiv_pos_as_xyz
    x,y,z
loop_
    _atom_site_label
    _atom_site_type_symbol
    _atom_site_fract_x
    _atom_site_fract_y
    _atom_site_fract_z
    _atom_site_occupancy
    Zr0     Zr   0.68230   0.05949   0.39126   1.000
    Zr1     Zr   0.31543   0.44010   0.89161   1.000
    Zr2     Zr   0.18045   0.94002   0.10971   1.000
    Zr3     Zr   0.81461   0.55997   0.61118   1.000
    N4      N    0.22647   0.73950   0.21589   1.000
    O5      O    0.21497   0.78963   0.18935   1.000
    N6      N    0.59086   0.78529   0.18475   1.000
    O7      O    0.62213   0.96122   0.31171   1.000
    O8      O    0.35572   0.95667   0.14459   1.000
    O9      O    0.30384   0.76155   0.26836   1.000
    N10     N    0.40388   0.71500   0.68571   1.000
    N11     N    0.76894   0.76072   0.71728   1.000
    O12     O    0.78036   0.71053   0.69075   1.000
    O13     O    0.37411   0.53840   0.81188   1.000
    O14     O    0.63905   0.54393   0.64500   1.000
    O15     O    0.56647   0.71134   0.76153   1.000
    N16     N    0.90336   0.28519   0.81726   1.000
    N17     N    0.26756   0.23995   0.78500   1.000
    O18     O    0.27952   0.28998   0.81165   1.000
    O19     O    0.87266   0.46166   0.69105   1.000
    O20     O    0.13980   0.45646   0.85749   1.000
    O21     O    0.06487   0.28926   0.74102   1.000
    N22     N    0.09373   0.21424   0.31646   1.000
    N23     N    0.72896   0.26076   0.28557   1.000
    O24     O    0.71729   0.21044   0.31200   1.000
    O25     O    0.85720   0.04310   0.35638   1.000
    O26     O    0.12150   0.03857   0.18911   1.000
    O27     O    0.80553   0.23881   0.23305   1.000
    C28     C    0.41822   0.25169   0.31775   1.000
    O29     O    0.49745   0.18508   0.34834   1.000
    O30     O    0.48285   0.26442   0.27924   1.000
    C31     C    0.70209   0.84882   0.53876   1.000
    O32     O    0.68726   0.92726   0.49691   1.000
    O33     O    0.71296   0.87126   0.59139   1.000
    O34     O    0.73876   0.74968   0.55531   1.000
    C35     C    0.79717   0.34797   0.46425   1.000
    O36     O    0.78666   0.37058   0.41166   1.000
    O37     O    0.75986   0.24889   0.44751   1.000
    O38     O    0.81145   0.42677   0.50600   1.000
    C39     C    0.07946   0.75150   0.68565   1.000
    O40     O    0.01481   0.76401   0.72416   1.000
    O41     O    0.99989   0.68511   0.65478   1.000
    C42     C    0.57821   0.24854   0.81751   1.000
    O43     O    0.49936   0.31486   0.84832   1.000
    O44     O    0.51331   0.23642   0.77875   1.000
    C45     C    0.20081   0.15075   0.96304   1.000
    O46     O    0.21148   0.12867   0.91044   1.000
    O47     O    0.18561   0.07224   0.00450   1.000
    O48     O    0.23827   0.24998   0.94691   1.000
    C49     C    0.91586   0.74813   0.18302   1.000
    O50     O    0.99528   0.81451   0.15240   1.000
    O51     O    0.98057   0.73594   0.22177   1.000
    C52     C    0.29656   0.65183   0.03804   1.000
    O53     O    0.25885   0.75076   0.05432   1.000
    O54     O    0.31144   0.57317   0.99657   1.000
    O55     O    0.28411   0.62919   0.09043   1.000
loop_
    _geom_bond_atom_site_label_1
    _geom_bond_atom_site_label_2
    _geom_bond_distance
    _geom_bond_site_symmetry_2
    _ccdc_geom_bond_type
    N4     O5        0.65334      .   S
    Zr2    O5        1.96001      .   S
    N6     O7        2.62300      .   S
    Zr0    O7        1.64286  1_545   S
    N6     O8        2.78835      .   S
    Zr2    O8        1.65542      .   S
    N6     O9        2.86575      .   S
    N4     O9        1.06986      .   S
    N11    O12       0.65368      .   S
    Zr3    O12       1.96103      .   S
    N10    O13       2.61977      .   S
    Zr1    O13       1.64394      .   S
    N10    O14       2.79118      .   S
    Zr3    O14       1.65562      .   S
    N11    O15       1.98915      .   S
    N10    O15       1.84265      .   S
    N17    O18       0.65359      .   S
    Zr1    O18       1.96077      .   S
    N16    O19       2.61991      .   S
    Zr3    O19       1.64308      .   S
    N16    O20       2.78892  1_655   S
    Zr1    O20       1.65554      .   S
    N17    O21       1.98789      .   S
    N16    O21       1.84502  1_655   S
    N23    O24       0.65389      .   S
    Zr0    O24       1.96167      .   S
    N22    O25       2.79096  1_455   S
    Zr0    O25       1.65637      .   S
    N22    O26       2.62471      .   S
    Zr2    O26       1.64387  1_565   S
    N22    O27       2.86833  1_455   S
    N23    O27       1.06998      .   S
    C28    O29       1.07944      .   S
    Zr0    O29       2.17965      .   S
    C28    O30       0.82866      .   S
    N23    O30       2.19723      .   S
    C31    O32       1.02116      .   S
    Zr0    O32       2.07762  1_545   S
    C31    O33       0.82916      .   S
    N11    O33       2.25508      .   S
    C31    O34       1.08341      .   S
    Zr3    O34       2.20077      .   S
    C35    O36       0.82909      .   S
    N23    O36       2.25517      .   S
    C35    O37       1.08334      .   S
    Zr0    O37       2.20105      .   S
    C35    O38       1.02152      .   S
    Zr3    O38       2.07742      .   S
    C39    O40       0.82881      .   S
    N11    O40       2.19510  1_655   S
    C39    O41       1.07904  1_455   S
    Zr3    O41       2.17719      .   S
    C42    O43       1.07858      .   S
    Zr1    O43       2.17611      .   S
    C42    O44       0.82922      .   S
    N17    O44       2.19457      .   S
    C45    O46       0.82839      .   S
    N17    O46       2.25458      .   S
    C45    O47       1.01851  1_556   S
    Zr2    O47       2.07268  1_565   S
    C45    O48       1.08375      .   S
    Zr1    O48       2.20306      .   S
    C49    O50       1.07881      .   S
    Zr2    O50       2.17807  1_455   S
    C49    O51       0.82868      .   S
    N4     O51       2.19549  1_455   S
    C52    O53       1.08373      .   S
    Zr2    O53       2.20248      .   S
    C52    O54       1.01965  1_554   S
    Zr1    O54       2.07444      .   S
    C52    O55       0.82885      .   S
    N4     O55       2.25398      .   S
