# CIF file generated by openbabel 2.4.90, see http://openbabel.sf.net
data_I
_chemical_name_common ''
_cell_length_a 8.651
_cell_length_b 15.345
_cell_length_c 17.421
_cell_angle_alpha 90
_cell_angle_beta 90
_cell_angle_gamma 90.001
_space_group_name_H-M_alt 'P 1'
_space_group_name_Hall 'P 1'
loop_
    _symmetry_equiv_pos_as_xyz
    x,y,z
loop_
    _atom_site_label
    _atom_site_type_symbol
    _atom_site_fract_x
    _atom_site_fract_y
    _atom_site_fract_z
    _atom_site_occupancy
    H0      H    0.44807   0.00726   0.59851   1.000
    H1      H    0.98058   0.06806   0.55363   1.000
    H2      H    0.05194   0.50725   0.40146   1.000
    H3      H    0.51942   0.56806   0.44636   1.000
    H4      H    0.55194   0.99276   0.09853   1.000
    H5      H    0.01944   0.93196   0.05364   1.000
    H6      H    0.94807   0.49277   0.90145   1.000
    H7      H    0.48058   0.43197   0.94634   1.000
    H8      H    0.55194   0.99277   0.40148   1.000
    H9      H    0.01943   0.93197   0.44635   1.000
    H10     H    0.94807   0.49277   0.59852   1.000
    H11     H    0.48059   0.43196   0.55363   1.000
    H12     H    0.44806   0.00726   0.90146   1.000
    H13     H    0.98057   0.06806   0.94634   1.000
    H14     H    0.05194   0.50725   0.09853   1.000
    H15     H    0.51942   0.56805   0.05363   1.000
    C16     C    0.44499   0.17463   0.50291   1.000
    C17     C    0.32779   0.11717   0.53823   1.000
    C18     C    0.34302   0.03934   0.58007   1.000
    C19     C    0.19259   0.00999   0.59112   1.000
    C20     C    0.13376   0.92633   0.62273   1.000
    C21     C    0.05501   0.67461   0.49708   1.000
    C22     C    0.17221   0.61715   0.46176   1.000
    C23     C    0.15698   0.53933   0.41991   1.000
    C24     C    0.30742   0.50999   0.40887   1.000
    C25     C    0.36626   0.42635   0.37726   1.000
    C26     C    0.55501   0.82540   0.00000   1.000
    C27     C    0.67222   0.88285   0.03824   1.000
    C28     C    0.65699   0.96068   0.08008   1.000
    C29     C    0.80742   0.99003   0.09112   1.000
    C30     C    0.86625   0.07369   0.12273   1.000
    C31     C    0.94500   0.32541   0.99709   1.000
    C32     C    0.82779   0.38287   0.96174   1.000
    C33     C    0.84302   0.46070   0.91990   1.000
    C34     C    0.69259   0.49004   0.90885   1.000
    C35     C    0.63375   0.57367   0.87725   1.000
    C36     C    0.55502   0.82539   0.49707   1.000
    C37     C    0.67222   0.88286   0.46176   1.000
    C38     C    0.65699   0.96069   0.41992   1.000
    C39     C    0.80742   0.99003   0.40887   1.000
    C40     C    0.86625   0.07369   0.37726   1.000
    C41     C    0.94499   0.32541   0.50290   1.000
    C42     C    0.82780   0.38286   0.53823   1.000
    C43     C    0.84303   0.46069   0.58008   1.000
    C44     C    0.69259   0.49003   0.59112   1.000
    C45     C    0.63375   0.57367   0.62272   1.000
    C46     C    0.44499   0.17462   0.99709   1.000
    C47     C    0.32778   0.11717   0.96174   1.000
    C48     C    0.34301   0.03934   0.91990   1.000
    C49     C    0.19258   0.00999   0.90886   1.000
    C50     C    0.13376   0.92633   0.87725   1.000
    C51     C    0.05500   0.67461   0.00000   1.000
    C52     C    0.17221   0.61716   0.03824   1.000
    C53     C    0.15698   0.53933   0.08008   1.000
    C54     C    0.30742   0.50999   0.09113   1.000
    C55     C    0.36626   0.42635   0.12273   1.000
    C56     C    0.44993   0.20999   0.25000   1.000
    C57     C    0.05003   0.70994   0.74998   1.000
    C58     C    0.55008   0.79002   0.74998   1.000
    C59     C    0.94996   0.29007   0.24999   1.000
    N60     N    0.09843   0.06987   0.55634   1.000
    N61     N    0.17719   0.13528   0.52360   1.000
    N62     N    0.40157   0.56987   0.44364   1.000
    N63     N    0.32280   0.63527   0.47639   1.000
    N64     N    0.90158   0.93015   0.05636   1.000
    N65     N    0.82282   0.86474   0.02361   1.000
    N66     N    0.59843   0.43015   0.94363   1.000
    N67     N    0.67720   0.36475   0.97638   1.000
    N68     N    0.90158   0.93015   0.44365   1.000
    N69     N    0.82281   0.86474   0.47639   1.000
    N70     N    0.59844   0.43015   0.55635   1.000
    N71     N    0.67721   0.36475   0.52359   1.000
    N72     N    0.09842   0.06987   0.94363   1.000
    N73     N    0.17719   0.13528   0.97638   1.000
    N74     N    0.40157   0.56987   0.05635   1.000
    N75     N    0.32280   0.63527   0.02360   1.000
    O76     O    0.58620   0.15557   0.50318   1.000
    O77     O    0.39268   0.24306   0.46708   1.000
    O78     O    0.98857   0.91290   0.61967   1.000
    O79     O    0.23476   0.87331   0.64711   1.000
    O80     O    0.39269   0.18924   0.31586   1.000
    O81     O    0.91380   0.65556   0.49679   1.000
    O82     O    0.10731   0.74305   0.53290   1.000
    O83     O    0.51145   0.41293   0.38031   1.000
    O84     O    0.26526   0.37332   0.35287   1.000
    O85     O    0.10730   0.68923   0.68412   1.000
    O86     O    0.41381   0.84445   0.00320   1.000
    O87     O    0.60731   0.75696   0.96707   1.000
    O88     O    0.01143   0.08713   0.11968   1.000
    O89     O    0.76524   0.12671   0.14712   1.000
    O90     O    0.60730   0.81079   0.81585   1.000
    O91     O    0.08619   0.34446   0.99679   1.000
    O92     O    0.89270   0.25697   0.03291   1.000
    O93     O    0.48856   0.58709   0.88030   1.000
    O94     O    0.73474   0.62670   0.85286   1.000
    O95     O    0.89270   0.31079   0.18413   1.000
    O96     O    0.41380   0.84445   0.49680   1.000
    O97     O    0.60732   0.75696   0.53290   1.000
    O98     O    0.01143   0.08713   0.38031   1.000
    O99     O    0.76524   0.12671   0.35287   1.000
    O100    O    0.60730   0.81079   0.68412   1.000
    O101    O    0.08620   0.34446   0.50319   1.000
    O102    O    0.89269   0.25697   0.46708   1.000
    O103    O    0.48856   0.58708   0.61967   1.000
    O104    O    0.73474   0.62670   0.64711   1.000
    O105    O    0.89270   0.31079   0.31586   1.000
    O106    O    0.58619   0.15558   0.99678   1.000
    O107    O    0.39269   0.24306   0.03291   1.000
    O108    O    0.98857   0.91289   0.88030   1.000
    O109    O    0.23476   0.87331   0.85286   1.000
    O110    O    0.39269   0.18924   0.18413   1.000
    O111    O    0.91381   0.65556   0.00319   1.000
    O112    O    0.10730   0.74305   0.96707   1.000
    O113    O    0.51145   0.41293   0.11968   1.000
    O114    O    0.26526   0.37332   0.14712   1.000
    O115    O    0.10730   0.68923   0.81585   1.000
    O116    O    0.57959   0.25528   0.24999   1.000
    O117    O    0.92042   0.75527   0.74998   1.000
    O118    O    0.42040   0.74475   0.74998   1.000
    O119    O    0.07958   0.24476   0.24999   1.000
loop_
    _geom_bond_atom_site_label_1
    _geom_bond_atom_site_label_2
    _geom_bond_distance
    _geom_bond_site_symmetry_2
    _ccdc_geom_bond_type
    C26    O86       1.25731      .   S
    C26    C27       1.49976      .   S
    C26    O87       1.27938  1_554   S
    C51    O111      1.25718  1_455   S
    C51    C52       1.49977      .   S
    C51    O112      1.27933  1_554   S
    N75    C52       1.35629      .   S
    N75    N74       1.34058      .   S
    N65    C27       1.35628      .   S
    N65    N64       1.34060      .   S
    O107   C46       1.30272  1_554   S
    O92    C31       1.30271  1_554   S
    C52    C53       1.40535      .   S
    C27    C28       1.40535      .   S
    H15    N74       1.02101      .   S
    H5     N64       1.02101  1_455   S
    N74    C54       1.36923      .   S
    N64    C29       1.36924      .   S
    C53    C54       1.39048      .   S
    C53    H14       1.08231      .   S
    C28    C29       1.39048      .   S
    C28    H4        1.08232      .   S
    C29    C30       1.48671  1_565   S
    C54    C55       1.48641      .   S
    O88    C30       1.27392  1_455   S
    O113   C55       1.27393      .   S
    C30    O89       1.26728      .   S
    C55    O114      1.26726      .   S
    O95    C59       1.28967      .   S
    O110   C56       1.28968      .   S
    C59    O119      1.31944  1_655   S
    C59    O105      1.28968      .   S
    O116   C56       1.31953      .   S
    C56    O80       1.28968      .   S
    O99    C40       1.26728      .   S
    O84    C25       1.26727      .   S
    C40    O98       1.27392  1_655   S
    C40    C39       1.48671  1_545   S
    C25    O83       1.27393      .   S
    C25    C24       1.48640      .   S
    H2     C23       1.08230      .   S
    H8     C38       1.08232      .   S
    C39    C38       1.39049      .   S
    C39    N68       1.36923      .   S
    C24    C23       1.39049      .   S
    C24    N62       1.36923      .   S
    C23    C22       1.40535      .   S
    C38    C37       1.40536      .   S
    N62    H3        1.02100      .   S
    N62    N63       1.34059      .   S
    N68    H9        1.02101  1_655   S
    N68    N69       1.34059      .   S
    C22    N63       1.35629      .   S
    C22    C21       1.47783      .   S
    C37    N69       1.35629      .   S
    C37    C36       1.47785      .   S
    O77    C16       1.30272      .   S
    O102   C41       1.30272      .   S
    O81    C21       1.25606  1_655   S
    O96    C36       1.25617      .   S
    C36    O97       1.30273      .   S
    C21    O82       1.30272      .   S
    C41    O101      1.25605  1_655   S
    C41    C42       1.47783      .   S
    C16    O76       1.25616      .   S
    C16    C17       1.47784      .   S
    N71    C42       1.35629      .   S
    N71    N70       1.34059      .   S
    N61    C17       1.35628      .   S
    N61    N60       1.34059      .   S
    C17    C18       1.40537      .   S
    C42    C43       1.40537      .   S
    H1     N60       1.02099  1_655   S
    H11    N70       1.02101      .   S
    N60    C19       1.36925      .   S
    N70    C44       1.36923      .   S
    C18    C19       1.39050      .   S
    C18    H0        1.08230      .   S
    C43    C44       1.39049      .   S
    C43    H10       1.08229      .   S
    C19    C20       1.48671  1_545   S
    C44    C45       1.48640      .   S
    O78    C20       1.27394  1_655   S
    O103   C45       1.27393      .   S
    C45    O104      1.26727      .   S
    C20    O79       1.26727      .   S
    O100   C58       1.28968      .   S
    O85    C57       1.28967      .   S
    O118   C58       1.31955      .   S
    C57    O117      1.31943  1_455   S
    C57    O115      1.28968      .   S
    C58    O90       1.28968      .   S
    O109   C50       1.26728      .   S
    O94    C35       1.26728      .   S
    C50    O108      1.27392  1_455   S
    C50    C49       1.48671  1_565   S
    C35    O93       1.27392      .   S
    C35    C34       1.48641      .   S
    H6     C33       1.08230      .   S
    H12    C48       1.08230      .   S
    C34    C33       1.39049      .   S
    C34    N66       1.36923      .   S
    C49    C48       1.39048      .   S
    C49    N72       1.36925      .   S
    C33    C32       1.40536      .   S
    C48    C47       1.40537      .   S
    N66    H7        1.02100      .   S
    N66    N67       1.34060      .   S
    N72    H13       1.02099  1_455   S
    N72    N73       1.34060      .   S
    C47    N73       1.35627      .   S
    C47    C46       1.47808      .   S
    C32    N67       1.35628      .   S
    C32    C31       1.47805      .   S
    O106   C46       1.25607      .   S
    O91    C31       1.25595  1_455   S
