# CIF file generated by openbabel 2.4.90, see http://openbabel.sf.net
data_I
_chemical_name_common ''
_cell_length_a 8.651
_cell_length_b 15.345
_cell_length_c 17.421
_cell_angle_alpha 90
_cell_angle_beta 90
_cell_angle_gamma 90.001
_space_group_name_H-M_alt 'P 1'
_space_group_name_Hall 'P 1'
loop_
    _symmetry_equiv_pos_as_xyz
    x,y,z
loop_
    _atom_site_label
    _atom_site_type_symbol
    _atom_site_fract_x
    _atom_site_fract_y
    _atom_site_fract_z
    _atom_site_occupancy
    Zr0     Zr   0.64421   0.26478   0.38890   1.000
    Zr1     Zr   0.85580   0.76476   0.61108   1.000
    Zr2     Zr   0.35579   0.73524   0.88889   1.000
    Zr3     Zr   0.14421   0.23526   0.11109   1.000
    Zr4     Zr   0.35579   0.73524   0.61108   1.000
    Zr5     Zr   0.14420   0.23526   0.38890   1.000
    Zr6     Zr   0.64421   0.26478   0.11109   1.000
    Zr7     Zr   0.85579   0.76476   0.88889   1.000
    N8      N    0.74242   0.94366   0.06164   1.000
    O9      O    0.91012   0.05243   0.08851   1.000
    O10     O    0.72357   0.06970   0.09537   1.000
    N11     N    0.75759   0.44366   0.56186   1.000
    O12     O    0.58988   0.55241   0.58862   1.000
    O13     O    0.77643   0.56969   0.59548   1.000
    N14     N    0.24242   0.55636   0.06164   1.000
    O15     O    0.22358   0.43033   0.09537   1.000
    O16     O    0.41012   0.44761   0.08851   1.000
    N17     N    0.74242   0.94366   0.43812   1.000
    O18     O    0.91012   0.05243   0.41137   1.000
    O19     O    0.72357   0.06970   0.40451   1.000
    N20     N    0.45373   0.21093   0.25000   1.000
    O21     O    0.36109   0.21159   0.19880   1.000
    O22     O    0.36109   0.21159   0.30119   1.000
    N23     N    0.25758   0.05637   0.93811   1.000
    O24     O    0.08988   0.94760   0.91136   1.000
    O25     O    0.27643   0.93032   0.90449   1.000
    N26     N    0.75759   0.44366   0.93811   1.000
    O27     O    0.58988   0.55241   0.91135   1.000
    O28     O    0.77643   0.56969   0.90449   1.000
    N29     N    0.25759   0.05637   0.56186   1.000
    O30     O    0.08989   0.94760   0.58861   1.000
    O31     O    0.27643   0.93032   0.59547   1.000
    N32     N    0.04626   0.71092   0.74998   1.000
    O33     O    0.13891   0.71158   0.69879   1.000
    O34     O    0.13890   0.71158   0.80118   1.000
    N35     N    0.24242   0.55637   0.43812   1.000
    O36     O    0.41012   0.44761   0.41137   1.000
    O37     O    0.22357   0.43033   0.40451   1.000
    N38     N    0.54627   0.78909   0.74998   1.000
    O39     O    0.63891   0.78843   0.80118   1.000
    O40     O    0.63891   0.78843   0.69879   1.000
    N41     N    0.95374   0.28910   0.25000   1.000
    O42     O    0.86110   0.28845   0.19880   1.000
    O43     O    0.86109   0.28845   0.30119   1.000
    O44     O    0.91221   0.35582   0.49944   1.000
    O45     O    0.23608   0.13429   0.50199   1.000
    O46     O    0.00945   0.27281   0.29296   1.000
    O47     O    0.23608   0.13429   0.99799   1.000
    O48     O    0.91221   0.35582   0.00054   1.000
    O49     O    0.00945   0.27281   0.20704   1.000
    O50     O    0.58780   0.85581   0.99933   1.000
    O51     O    0.26392   0.63428   0.00188   1.000
    O52     O    0.49054   0.77280   0.79294   1.000
    O53     O    0.50945   0.22723   0.20704   1.000
    O54     O    0.41220   0.14421   0.00054   1.000
    O55     O    0.73608   0.36574   0.99799   1.000
    O56     O    0.76393   0.86573   0.00188   1.000
    O57     O    0.08780   0.64420   0.99933   1.000
    O58     O    0.99054   0.72721   0.79294   1.000
    O59     O    0.58780   0.85581   0.50054   1.000
    O60     O    0.26392   0.63428   0.49799   1.000
    O61     O    0.49055   0.77280   0.70702   1.000
    O62     O    0.50945   0.22723   0.29296   1.000
    O63     O    0.73608   0.36574   0.50199   1.000
    O64     O    0.41221   0.14421   0.49944   1.000
    O65     O    0.76393   0.86573   0.49799   1.000
    O66     O    0.99055   0.72721   0.70702   1.000
    O67     O    0.08780   0.64420   0.50054   1.000
loop_
    _geom_bond_atom_site_label_1
    _geom_bond_atom_site_label_2
    _geom_bond_distance
    _geom_bond_site_symmetry_2
    _ccdc_geom_bond_type
    N8     O9        2.26043  1_565   S
    Zr3    O9        3.48236  1_455   S
    N8     O10       2.02803  1_565   S
    Zr6    O10       3.08340      .   S
    N11    O12       2.25992      .   S
    Zr4    O12       3.48217      .   S
    N11    O13       2.02733      .   S
    Zr1    O13       3.08307      .   S
    N14    O15       2.02789      .   S
    Zr3    O15       3.08324      .   S
    N14    O16       2.26034      .   S
    Zr6    O16       3.48237      .   S
    N17    O18       2.26002  1_565   S
    Zr5    O18       3.48216  1_455   S
    N17    O19       2.02747  1_565   S
    Zr0    O19       3.08323      .   S
    N20    O21       1.19907      .   S
    Zr3    O21       2.44687      .   S
    N20    O22       1.19907      .   S
    Zr5    O22       2.44689      .   S
    N23    O24       2.26002  1_545   S
    Zr7    O24       3.48214  1_655   S
    N23    O25       2.02747  1_545   S
    Zr2    O25       3.08321      .   S
    N26    O27       2.25994      .   S
    Zr2    O27       3.48216      .   S
    N26    O28       2.02733      .   S
    Zr7    O28       3.08305      .   S
    N29    O30       2.26001  1_545   S
    Zr1    O30       3.48217  1_655   S
    N29    O31       2.02748  1_545   S
    Zr4    O31       3.08324      .   S
    N32    O33       1.19909      .   S
    Zr4    O33       2.44688      .   S
    N32    O34       1.19907      .   S
    Zr2    O34       2.44685      .   S
    N35    O36       2.25992      .   S
    Zr0    O36       3.48214      .   S
    N35    O37       2.02731      .   S
    Zr5    O37       3.08304      .   S
    N38    O39       1.19906      .   S
    Zr7    O39       2.44688      .   S
    N38    O40       1.19907      .   S
    Zr1    O40       2.44691      .   S
    N41    O42       1.19906      .   S
    Zr6    O42       2.44684      .   S
    N41    O43       1.19907      .   S
    Zr0    O43       2.44686      .   S
    Zr5    O44       3.34048  1_455   S
    N11    O44       2.18823      .   S
    Zr5    O45       2.62938      .   S
    N29    O45       1.59759      .   S
    Zr5    O46       2.11772      .   S
    N41    O46       0.92464  1_655   S
    Zr3    O47       2.62952  1_554   S
    N23    O47       1.59766      .   S
    Zr3    O48       3.34065  1_455   S
    N26    O48       2.18831  1_556   S
    Zr3    O49       2.11774      .   S
    N41    O49       0.92464  1_655   S
    Zr2    O50       3.33963      .   S
    N8     O50       2.18740  1_554   S
    Zr2    O51       2.62794  1_556   S
    N14    O51       1.59632      .   S
    Zr2    O52       2.11776      .   S
    N38    O52       0.92466      .   S
    Zr6    O53       2.11778      .   S
    N20    O53       0.92467      .   S
    Zr6    O54       3.34074      .   S
    N23    O54       2.18836  1_556   S
    Zr6    O55       2.62940  1_554   S
    N26    O55       1.59759      .   S
    Zr7    O56       2.62807  1_556   S
    N8     O56       1.59640      .   S
    Zr7    O57       3.33954  1_655   S
    N14    O57       2.18735  1_554   S
    Zr7    O58       2.11772      .   S
    N32    O58       0.92464  1_455   S
    Zr4    O59       3.34058      .   S
    N17    O59       2.18829      .   S
    Zr4    O60       2.62920      .   S
    N35    O60       1.59749      .   S
    Zr4    O61       2.11776      .   S
    N38    O61       0.92466      .   S
    Zr0    O62       2.11777      .   S
    N20    O62       0.92466      .   S
    Zr0    O63       2.62925      .   S
    N11    O63       1.59751      .   S
    Zr0    O64       3.34058      .   S
    N29    O64       2.18828      .   S
    Zr1    O65       2.62934      .   S
    N17    O65       1.59758      .   S
    Zr1    O66       2.11772      .   S
    N32    O66       0.92464  1_455   S
    Zr1    O67       3.34048  1_655   S
    N35    O67       2.18823      .   S
