# CIF file generated by openbabel 2.4.90, see http://openbabel.sf.net
data_I
_chemical_name_common ''
_cell_length_a 17.924
_cell_length_b 17.979
_cell_length_c 13.775
_cell_angle_alpha 73.331
_cell_angle_beta 71.911
_cell_angle_gamma 81.632
_space_group_name_H-M_alt 'P 1'
_space_group_name_Hall 'P 1'
loop_
    _symmetry_equiv_pos_as_xyz
    x,y,z
loop_
    _atom_site_label
    _atom_site_type_symbol
    _atom_site_fract_x
    _atom_site_fract_y
    _atom_site_fract_z
    _atom_site_occupancy
    Lv0     Lv   0.56863   0.99051   0.80352   1.000
    Lv1     Lv   0.06857   0.49051   0.80353   1.000
    Lv2     Lv   0.06857   0.99051   0.80352   1.000
    Lv3     Lv   0.47330   0.56682   0.26142   1.000
    Lv4     Lv   0.56863   0.49051   0.80353   1.000
    Lv5     Lv   0.97330   0.56681   0.26140   1.000
    Lv6     Lv   0.72098   0.81654   0.26291   1.000
    Lv7     Lv   0.22099   0.31655   0.26289   1.000
    Lv8     Lv   0.97330   0.06683   0.26140   1.000
    Lv9     Lv   0.22099   0.81654   0.26292   1.000
    Lv10    Lv   0.72098   0.31655   0.26281   1.000
    Lv11    Lv   0.47330   0.06682   0.26141   1.000
