# CIF file generated by openbabel 2.4.90, see http://openbabel.sf.net
data_I
_chemical_name_common ''
_cell_length_a 17.924
_cell_length_b 17.979
_cell_length_c 13.775
_cell_angle_alpha 73.331
_cell_angle_beta 71.911
_cell_angle_gamma 81.632
_space_group_name_H-M_alt 'P 1'
_space_group_name_Hall 'P 1'
loop_
    _symmetry_equiv_pos_as_xyz
    x,y,z
loop_
    _atom_site_label
    _atom_site_type_symbol
    _atom_site_fract_x
    _atom_site_fract_y
    _atom_site_fract_z
    _atom_site_occupancy
    H0      H    0.43848   0.13290   0.62161   1.000
    H1      H    0.43848   0.63290   0.62161   1.000
    H2      H    0.93847   0.13290   0.62161   1.000
    H3      H    0.93847   0.63290   0.62161   1.000
    H4      H    0.04297   0.12590   0.45374   1.000
    H5      H    0.04298   0.62590   0.45374   1.000
    H6      H    0.54297   0.12590   0.45374   1.000
    H7      H    0.54297   0.62590   0.45374   1.000
    H8      H    0.26717   0.49692   0.97846   1.000
    H9      H    0.26716   0.99691   0.97846   1.000
    H10     H    0.76716   0.49692   0.97847   1.000
    H11     H    0.76716   0.99691   0.97847   1.000
    H12     H    0.36992   0.48001   0.81420   1.000
    H13     H    0.36991   0.97999   0.81420   1.000
    H14     H    0.86991   0.48000   0.81421   1.000
    H15     H    0.86990   0.97999   0.81421   1.000
    H16     H    0.50238   0.14754   0.85061   1.000
    H17     H    0.50238   0.64754   0.85061   1.000
    H18     H    0.00000   0.14754   0.85061   1.000
    H19     H    0.00000   0.64754   0.85061   1.000
    H20     H    0.39184   0.16025   0.00000   1.000
    H21     H    0.39184   0.66024   0.00000   1.000
    H22     H    0.89183   0.16025   0.00000   1.000
    H23     H    0.89183   0.66024   0.00000   1.000
    H24     H    0.04147   0.44321   0.88095   1.000
    H25     H    0.04147   0.94320   0.88095   1.000
    H26     H    0.54146   0.44322   0.88095   1.000
    H27     H    0.54146   0.94320   0.88095   1.000
    H28     H    0.13302   0.35914   0.78299   1.000
    H29     H    0.13302   0.85913   0.78299   1.000
    H30     H    0.63301   0.35914   0.78299   1.000
    H31     H    0.63301   0.85913   0.78299   1.000
    H32     H    0.25014   0.48102   0.73844   1.000
    H33     H    0.25013   0.98102   0.73844   1.000
    H34     H    0.75013   0.48102   0.73844   1.000
    H35     H    0.75013   0.98102   0.73844   1.000
    H36     H    0.27926   0.38834   0.71165   1.000
    H37     H    0.27926   0.88834   0.71165   1.000
    H38     H    0.77925   0.38834   0.71165   1.000
    H39     H    0.77925   0.88834   0.71160   1.000
    H40     H    0.20539   0.41319   0.58381   1.000
    H41     H    0.20540   0.91318   0.58381   1.000
    H42     H    0.70539   0.41319   0.58381   1.000
    H43     H    0.70539   0.91318   0.58381   1.000
    H44     H    0.25694   0.49634   0.55165   1.000
    H45     H    0.25693   0.99634   0.55165   1.000
    H46     H    0.75693   0.49634   0.55165   1.000
    H47     H    0.75693   0.99634   0.55160   1.000
    H48     H    0.13116   0.45423   0.00804   1.000
    H49     H    0.13115   0.95423   0.00804   1.000
    H50     H    0.63115   0.45424   0.00804   1.000
    H51     H    0.63115   0.95423   0.00804   1.000
    H52     H    0.11603   0.05727   0.99341   1.000
    H53     H    0.11603   0.55726   0.99341   1.000
    H54     H    0.61603   0.05727   0.99341   1.000
    H55     H    0.61603   0.55726   0.99341   1.000
    H56     H    0.03574   0.00138   0.00000   1.000
    H57     H    0.03574   0.50137   0.00000   1.000
    H58     H    0.53574   0.00138   0.00000   1.000
    H59     H    0.53574   0.50137   0.00000   1.000
    H60     H    0.17202   0.24986   0.89880   1.000
    H61     H    0.17202   0.74985   0.89880   1.000
    H62     H    0.67201   0.24986   0.89880   1.000
    H63     H    0.67201   0.74985   0.89880   1.000
    H64     H    0.26826   0.28634   0.85259   1.000
    H65     H    0.26826   0.78634   0.85250   1.000
    H66     H    0.76825   0.28634   0.85259   1.000
    H67     H    0.76825   0.78634   0.85259   1.000
    H68     H    0.21734   0.26388   0.99073   1.000
    H69     H    0.21734   0.76387   0.99073   1.000
    H70     H    0.71733   0.26388   0.99073   1.000
    H71     H    0.71733   0.76387   0.99073   1.000
    H72     H    0.44875   0.04073   0.38306   1.000
    H73     H    0.44875   0.54073   0.38306   1.000
    H74     H    0.94875   0.04074   0.38300   1.000
    H75     H    0.94875   0.54072   0.38300   1.000
    H76     H    0.49783   0.09310   0.13984   1.000
    H77     H    0.49783   0.59309   0.13980   1.000
    H78     H    0.99782   0.09310   0.13983   1.000
    H79     H    0.99782   0.59309   0.13984   1.000
    H80     H    0.24375   0.33768   0.14129   1.000
    H81     H    0.24374   0.83767   0.14130   1.000
    H82     H    0.74374   0.33768   0.14100   1.000
    H83     H    0.74373   0.83767   0.14130   1.000
    H84     H    0.19863   0.29544   0.38450   1.000
    H85     H    0.19864   0.79542   0.38457   1.000
    H86     H    0.69864   0.29544   0.38450   1.000
    H87     H    0.69862   0.79542   0.38457   1.000
    C88     C    0.13346   0.01076   0.62174   1.000
    C89     C    0.13346   0.51074   0.62174   1.000
    C90     C    0.63346   0.01076   0.62174   1.000
    C91     C    0.63345   0.51074   0.62174   1.000
    N92     N    0.82547   0.57972   0.00000   1.000
    O93     O    0.11946   0.02477   0.86142   1.000
    O94     O    0.11947   0.52476   0.86140   1.000
    O95     O    0.61946   0.02477   0.86142   1.000
    C96     C    0.07827   0.01201   0.71976   1.000
    C97     C    0.07827   0.51200   0.71976   1.000
    C98     C    0.57827   0.01201   0.71976   1.000
    C99     C    0.57827   0.51200   0.71976   1.000
    C100    C    0.00679   0.05656   0.72018   1.000
    C101    C    0.00680   0.55656   0.72018   1.000
    C102    C    0.50679   0.05656   0.72018   1.000
    C103    C    0.50679   0.55656   0.72018   1.000
    C104    C    0.49316   0.09787   0.62391   1.000
    C105    C    0.49316   0.59787   0.62391   1.000
    C106    C    0.99315   0.09787   0.62391   1.000
    C107    C    0.99316   0.59787   0.62391   1.000
    C108    C    0.05071   0.09449   0.53063   1.000
    C109    C    0.05072   0.59449   0.53063   1.000
    C110    C    0.55071   0.09449   0.53063   1.000
    C111    C    0.55071   0.59449   0.53063   1.000
    C112    C    0.31958   0.03004   0.94649   1.000
    C113    C    0.31958   0.53003   0.94649   1.000
    C114    C    0.81958   0.03004   0.94649   1.000
    C115    C    0.81958   0.53003   0.94649   1.000
    C116    C    0.37743   0.02048   0.85562   1.000
    C117    C    0.37743   0.52047   0.85562   1.000
    C118    C    0.87742   0.02048   0.85562   1.000
    C119    C    0.87743   0.52047   0.85562   1.000
    C120    C    0.44487   0.06274   0.81919   1.000
    C121    C    0.44488   0.56273   0.81919   1.000
    C122    C    0.94487   0.06274   0.81919   1.000
    C123    C    0.94487   0.56273   0.81919   1.000
    C124    C    0.45059   0.11419   0.87570   1.000
    C125    C    0.45059   0.61418   0.87570   1.000
    C126    C    0.95058   0.11419   0.87570   1.000
    C127    C    0.95058   0.61418   0.87570   1.000
    C128    C    0.38990   0.12129   0.96491   1.000
    C129    C    0.38989   0.62128   0.96491   1.000
    C130    C    0.88989   0.12129   0.96491   1.000
    C131    C    0.88989   0.62128   0.96491   1.000
    C132    C    0.09577   0.46817   0.82322   1.000
    C133    C    0.09576   0.96816   0.82322   1.000
    C134    C    0.59576   0.46817   0.82322   1.000
    C135    C    0.59576   0.96816   0.82322   1.000
    C136    C    0.15864   0.40140   0.80690   1.000
    C137    C    0.15863   0.90140   0.80693   1.000
    C138    C    0.65863   0.40140   0.80693   1.000
    C139    C    0.65863   0.90140   0.80693   1.000
    C140    C    0.23081   0.43337   0.71830   1.000
    C141    C    0.23080   0.93336   0.71830   1.000
    C142    C    0.73080   0.43337   0.71830   1.000
    C143    C    0.73080   0.93336   0.71837   1.000
    C144    C    0.21007   0.46266   0.61367   1.000
    C145    C    0.21007   0.96265   0.61367   1.000
    C146    C    0.71007   0.46266   0.61367   1.000
    C147    C    0.71007   0.96266   0.61367   1.000
    C148    C    0.09952   0.00772   0.97480   1.000
    C149    C    0.09952   0.50770   0.97487   1.000
    C150    C    0.59951   0.00772   0.97480   1.000
    C151    C    0.59951   0.50770   0.97487   1.000
    C152    C    0.21008   0.28728   0.91124   1.000
    C153    C    0.21009   0.78728   0.91124   1.000
    C154    C    0.71008   0.28728   0.91124   1.000
    C155    C    0.71008   0.78728   0.91124   1.000
    C156    C    0.44215   0.05646   0.30340   1.000
    C157    C    0.44215   0.55645   0.30347   1.000
    C158    C    0.94214   0.05647   0.30340   1.000
    C159    C    0.94214   0.55645   0.30340   1.000
    C160    C    0.00449   0.07700   0.21936   1.000
    C161    C    0.00448   0.57699   0.21936   1.000
    C162    C    0.50448   0.07700   0.21936   1.000
    C163    C    0.50447   0.57699   0.21936   1.000
    C164    C    0.22707   0.30106   0.22196   1.000
    C165    C    0.22707   0.80104   0.22196   1.000
    C166    C    0.72707   0.30105   0.22196   1.000
    C167    C    0.72706   0.80104   0.22196   1.000
    C168    C    0.21450   0.33202   0.30383   1.000
    C169    C    0.21450   0.83201   0.30384   1.000
    C170    C    0.71449   0.33202   0.30380   1.000
    C171    C    0.71449   0.83201   0.30380   1.000
    N172    N    0.11908   0.05172   0.52922   1.000
    N173    N    0.11908   0.55171   0.52922   1.000
    N174    N    0.61907   0.05172   0.52922   1.000
    N175    N    0.61907   0.55171   0.52922   1.000
    N176    N    0.32548   0.07973   0.00000   1.000
    N177    N    0.32548   0.57972   0.00000   1.000
    N178    N    0.82547   0.07973   0.00000   1.000
    O179    O    0.61946   0.52476   0.86140   1.000
    O180    O    0.17490   0.36450   0.90531   1.000
    O181    O    0.17491   0.86449   0.90531   1.000
    O182    O    0.67490   0.36450   0.90531   1.000
    O183    O    0.67490   0.86449   0.90531   1.000
loop_
    _geom_bond_atom_site_label_1
    _geom_bond_atom_site_label_2
    _geom_bond_distance
    _geom_bond_site_symmetry_2
    _ccdc_geom_bond_type
    N176   C112      1.34392  1_554   S
    N176   C128      1.34997  1_554   S
    N177   C113      1.34391  1_554   S
    N177   C129      1.34998  1_554   S
    N178   C114      1.34394  1_554   S
    N178   C130      1.34998  1_554   S
    N92    C115      1.34396  1_554   S
    N92    C131      1.34997  1_554   S
    H56    C148      1.09958  1_554   S
    H57    C149      1.09962  1_554   S
    H58    C150      1.09958  1_554   S
    H59    C151      1.09961  1_554   S
    H23    C131      0.96812  1_554   S
    H22    C130      0.96813  1_554   S
    H21    C129      0.96810  1_554   S
    H20    C128      0.96809  1_554   S
    H48    C149      1.09760  1_554   S
    H51    C150      1.09816  1_564   S
    H50    C151      1.09761  1_554   S
    H49    C148      1.09817  1_564   S
    H77    C163      1.09003      .   S
    H78    C160      1.08973  1_655   S
    H76    C162      1.08951      .   S
    H79    C161      1.08961  1_655   S
    H82    C166      1.09347      .   S
    H80    C164      1.09042      .   S
    H83    C167      1.09032      .   S
    H81    C165      1.09032      .   S
    C161   C159      1.34041  1_455   S
    C163   C157      1.34076      .   S
    C162   C156      1.34026      .   S
    C160   C158      1.34041  1_455   S
    C164   C168      1.34110      .   S
    C165   C169      1.34122      .   S
    C166   C170      1.34072      .   S
    C167   C171      1.34072      .   S
    C159   H75       1.09053      .   S
    C158   H74       1.09053      .   S
    C156   H72       1.09133      .   S
    C157   H73       1.09040      .   S
    C170   H86       1.08994      .   S
    C171   H87       1.09067      .   S
    C168   H84       1.08961      .   S
    C169   H85       1.09025      .   S
    H6     C110      1.08872      .   S
    H7     C111      1.08872      .   S
    H5     C109      1.08873      .   S
    H4     C108      1.08873      .   S
    N174   C110      1.34638      .   S
    N174   C90       1.35775      .   S
    N172   C108      1.34637      .   S
    N172   C88       1.35775      .   S
    N175   C111      1.34638      .   S
    N175   C91       1.35775      .   S
    N173   C109      1.34637      .   S
    N173   C89       1.35775      .   S
    C108   C106      1.38652  1_455   S
    C109   C107      1.38652  1_455   S
    C110   C104      1.38640      .   S
    C111   C105      1.38640      .   S
    H47    C147      1.09923      .   S
    H45    C145      1.09894      .   S
    H46    C146      1.09895      .   S
    H44    C144      1.09895      .   S
    H40    C144      1.10470      .   S
    H41    C145      1.10469      .   S
    H42    C146      1.10468      .   S
    H43    C147      1.10467      .   S
    C145   C88       1.50351  1_565   S
    C145   C141      1.52737      .   S
    C147   C90       1.50351  1_565   S
    C147   C143      1.52825      .   S
    C146   C91       1.50340      .   S
    C146   C142      1.52737      .   S
    C144   C89       1.50340      .   S
    C144   C140      1.52738      .   S
    H3     C107      1.08931      .   S
    H2     C106      1.08930      .   S
    H1     C105      1.08930      .   S
    H0     C104      1.08929      .   S
    C89    C97       1.40843      .   S
    C88    C96       1.40844      .   S
    C90    C98       1.40844      .   S
    C91    C99       1.40843      .   S
    C107   C101      1.39763  1_655   S
    C106   C100      1.39764  1_655   S
    C105   C103      1.39753      .   S
    C104   C102      1.39753      .   S
    H39    C143      1.09851      .   S
    H36    C140      1.09842      .   S
    H37    C141      1.09843      .   S
    H38    C142      1.09843      .   S
    C140   H32       1.10158      .   S
    C140   C136      1.52537      .   S
    C141   H33       1.10157      .   S
    C141   C137      1.52555      .   S
    C142   H34       1.10158      .   S
    C142   C138      1.52554      .   S
    C143   H35       1.10103      .   S
    C143   C139      1.52513      .   S
    C97    C101      1.40802      .   S
    C97    C132      1.52042      .   S
    C99    C103      1.40802      .   S
    C99    C134      1.52041      .   S
    C98    C102      1.40801      .   S
    C98    C135      1.52047  1_545   S
    C96    C100      1.40801      .   S
    C96    C133      1.52048  1_545   S
    C102   C120      1.48831      .   S
    C103   C121      1.48832      .   S
    C101   C123      1.48843  1_455   S
    C100   C122      1.48843  1_455   S
    H31    C139      1.11182      .   S
    H30    C138      1.11184      .   S
    H29    C137      1.11181      .   S
    H28    C136      1.11158      .   S
    C136   C132      1.53787      .   S
    C136   O180      1.42691      .   S
    C138   C134      1.53780      .   S
    C138   O182      1.42655      .   S
    C137   C133      1.53779      .   S
    C137   O181      1.42655      .   S
    C139   C135      1.53780      .   S
    C139   O183      1.42655      .   S
    H12    C117      1.08966      .   S
    H13    C116      1.09006  1_565   S
    H14    C119      1.08960      .   S
    H15    C118      1.08998  1_565   S
    C121   C117      1.40084      .   S
    C121   C125      1.40078      .   S
    C122   C118      1.40081      .   S
    C122   C126      1.40084      .   S
    C123   C119      1.40082      .   S
    C123   C127      1.40082      .   S
    C120   C116      1.40083      .   S
    C120   C124      1.40078      .   S
    C132   O94       1.43656      .   S
    C132   H24       1.10571      .   S
    C133   O93       1.43714  1_565   S
    C133   H25       1.10572      .   S
    C134   O179      1.43656      .   S
    C134   H26       1.10572      .   S
    C135   O95       1.43715  1_565   S
    C135   H27       1.10572      .   S
    H16    C124      1.08843      .   S
    H17    C125      1.08843      .   S
    H18    C126      1.05326  1_455   S
    H19    C127      1.05332  1_455   S
    H65    C153      1.10504      .   S
    H67    C155      1.10448      .   S
    H66    C154      1.10449      .   S
    H64    C152      1.10449      .   S
    C119   C115      1.39180      .   S
    C116   C112      1.39180      .   S
    C117   C113      1.39180      .   S
    C118   C114      1.39180      .   S
    O94    C149      1.44045      .   S
    O179   C151      1.44045      .   S
    O93    C148      1.43928      .   S
    O95    C150      1.43928      .   S
    C125   C129      1.38897      .   S
    C126   C130      1.38896      .   S
    C127   C131      1.38896      .   S
    C124   C128      1.38897      .   S
    H61    C153      1.10462      .   S
    H63    C155      1.10462      .   S
    H62    C154      1.10461      .   S
    H60    C152      1.10462      .   S
    O181   C153      1.42959      .   S
    O182   C154      1.42959      .   S
    O183   C155      1.42958      .   S
    O180   C152      1.42958      .   S
    C154   H70       1.09597      .   S
    C153   H69       1.09596      .   S
    C155   H71       1.09597      .   S
    C152   H68       1.09597      .   S
    C115   H10       1.08922      .   S
    C112   H9        1.08953  1_545   S
    C113   H8        1.08923      .   S
    C114   H11       1.08953  1_545   S
    C148   H52       1.09636      .   S
    C150   H54       1.09639      .   S
    C149   H53       1.09584      .   S
    C151   H55       1.09586      .   S
