# CIF file generated by openbabel 2.4.90, see http://openbabel.sf.net
data_I
_chemical_name_common ''
_cell_length_a 17.924
_cell_length_b 17.979
_cell_length_c 13.775
_cell_angle_alpha 73.331
_cell_angle_beta 71.911
_cell_angle_gamma 81.632
_space_group_name_H-M_alt 'P 1'
_space_group_name_Hall 'P 1'
loop_
    _symmetry_equiv_pos_as_xyz
    x,y,z
loop_
    _atom_site_label
    _atom_site_type_symbol
    _atom_site_fract_x
    _atom_site_fract_y
    _atom_site_fract_z
    _atom_site_occupancy
    Zr0     Zr   0.25335   0.07812   0.15176   1.000
    Zr1     Zr   0.25335   0.57811   0.15176   1.000
    Zr2     Zr   0.75335   0.07812   0.15176   1.000
    Zr3     Zr   0.75335   0.57811   0.15176   1.000
    Zr4     Zr   0.19143   0.05334   0.37640   1.000
    Zr5     Zr   0.19143   0.55333   0.37640   1.000
    Zr6     Zr   0.69143   0.05334   0.37640   1.000
    Zr7     Zr   0.69142   0.55333   0.37640   1.000
    Zr8     Zr   0.36162   0.05609   0.29438   1.000
    Zr9     Zr   0.36162   0.55609   0.29438   1.000
    Zr10    Zr   0.86161   0.05610   0.29438   1.000
    Zr11    Zr   0.86161   0.55608   0.29438   1.000
    Zr12    Zr   0.08494   0.07771   0.22800   1.000
    Zr13    Zr   0.08494   0.57769   0.22850   1.000
    Zr14    Zr   0.58493   0.07770   0.22850   1.000
    Zr15    Zr   0.58493   0.57770   0.22850   1.000
    Zr16    Zr   0.22262   0.21664   0.23445   1.000
    Zr17    Zr   0.22262   0.71663   0.23445   1.000
    Zr18    Zr   0.72261   0.21664   0.23445   1.000
    Zr19    Zr   0.72261   0.71663   0.23445   1.000
    Zr20    Zr   0.22070   0.41628   0.29066   1.000
    Zr21    Zr   0.22071   0.91627   0.29066   1.000
    Zr22    Zr   0.72071   0.41628   0.29066   1.000
    Zr23    Zr   0.72069   0.91627   0.29060   1.000
    Zr24    Zr   0.30571   0.05287   0.37975   1.000
    Zr25    Zr   0.30570   0.55285   0.37975   1.000
    Zr26    Zr   0.80570   0.05287   0.37975   1.000
    Zr27    Zr   0.80570   0.55285   0.37975   1.000
    Zr28    Zr   0.35419   0.05956   0.20442   1.000
    Zr29    Zr   0.35418   0.55955   0.20442   1.000
    Zr30    Zr   0.85418   0.05956   0.20442   1.000
    Zr31    Zr   0.85418   0.55955   0.20442   1.000
    Zr32    Zr   0.09370   0.05953   0.32070   1.000
    Zr33    Zr   0.09370   0.55952   0.32078   1.000
    Zr34    Zr   0.59369   0.05953   0.32078   1.000
    Zr35    Zr   0.59369   0.55952   0.32078   1.000
    Zr36    Zr   0.13939   0.09573   0.14154   1.000
    Zr37    Zr   0.13939   0.59572   0.14154   1.000
    Zr38    Zr   0.63939   0.09573   0.14154   1.000
    Zr39    Zr   0.63938   0.59572   0.14154   1.000
    Zr40    Zr   0.19054   0.17447   0.32567   1.000
    Zr41    Zr   0.19054   0.67446   0.32567   1.000
    Zr42    Zr   0.69053   0.17447   0.32567   1.000
    Zr43    Zr   0.69053   0.67446   0.32567   1.000
    Zr44    Zr   0.25302   0.19347   0.15001   1.000
    Zr45    Zr   0.25302   0.69346   0.15001   1.000
    Zr46    Zr   0.75301   0.19347   0.15001   1.000
    Zr47    Zr   0.75301   0.69346   0.15001   1.000
    Zr48    Zr   0.20664   0.43742   0.37590   1.000
    Zr49    Zr   0.20663   0.93741   0.37598   1.000
    Zr50    Zr   0.70663   0.43742   0.37598   1.000
    Zr51    Zr   0.70663   0.93741   0.37598   1.000
    Zr52    Zr   0.23853   0.46034   0.19707   1.000
    Zr53    Zr   0.23853   0.96033   0.19707   1.000
    Zr54    Zr   0.73852   0.46034   0.19707   1.000
    Zr55    Zr   0.73852   0.96033   0.19707   1.000
    O56     O    0.19637   0.08693   0.14665   1.000
    O57     O    0.11217   0.08672   0.18477   1.000
    O58     O    0.19637   0.58691   0.14665   1.000
    O59     O    0.11217   0.58671   0.18502   1.000
    O60     O    0.69637   0.08693   0.14665   1.000
    O61     O    0.61216   0.08672   0.18502   1.000
    O62     O    0.69637   0.58691   0.14665   1.000
    O63     O    0.61216   0.58671   0.18502   1.000
    O64     O    0.25319   0.13580   0.15088   1.000
    O65     O    0.23782   0.20506   0.19223   1.000
    O66     O    0.25318   0.63579   0.15088   1.000
    O67     O    0.23782   0.70505   0.19223   1.000
    O68     O    0.75318   0.13580   0.15088   1.000
    O69     O    0.73781   0.20506   0.19223   1.000
    O70     O    0.75318   0.63579   0.15088   1.000
    O71     O    0.73781   0.70505   0.19223   1.000
    O72     O    0.24594   0.51923   0.17441   1.000
    O73     O    0.30377   0.56883   0.17809   1.000
    O74     O    0.74593   0.01923   0.17441   1.000
    O75     O    0.80376   0.06884   0.17809   1.000
    O76     O    0.74594   0.51923   0.17441   1.000
    O77     O    0.80376   0.56883   0.17809   1.000
    O78     O    0.24594   0.01923   0.17441   1.000
    O79     O    0.30377   0.06884   0.17809   1.000
    O80     O    0.72961   0.43831   0.24386   1.000
    O81     O    0.22962   0.93830   0.24386   1.000
    O82     O    0.22962   0.43831   0.24386   1.000
    O83     O    0.72961   0.93830   0.24383   1.000
    O84     O    0.35790   0.05783   0.24940   1.000
    O85     O    0.35790   0.55782   0.24940   1.000
    O86     O    0.85789   0.05783   0.24940   1.000
    O87     O    0.85789   0.55781   0.24940   1.000
    O88     O    0.08932   0.06862   0.27435   1.000
    O89     O    0.08932   0.56861   0.27464   1.000
    O90     O    0.58931   0.06862   0.27464   1.000
    O91     O    0.58931   0.56861   0.27464   1.000
    O92     O    0.70657   0.69555   0.28006   1.000
    O93     O    0.70657   0.19556   0.28006   1.000
    O94     O    0.20658   0.69555   0.28006   1.000
    O95     O    0.20658   0.19556   0.28006   1.000
    O96     O    0.71366   0.92684   0.33329   1.000
    O97     O    0.21367   0.42685   0.33328   1.000
    O98     O    0.71367   0.42685   0.33332   1.000
    O99     O    0.21367   0.92684   0.33332   1.000
    O100    O    0.83365   0.55447   0.33706   1.000
    O101    O    0.83366   0.05448   0.33706   1.000
    O102    O    0.33366   0.55447   0.33706   1.000
    O103    O    0.33366   0.05448   0.33706   1.000
    O104    O    0.14257   0.05644   0.34855   1.000
    O105    O    0.64256   0.55643   0.34859   1.000
    O106    O    0.14256   0.55643   0.34859   1.000
    O107    O    0.64256   0.05644   0.34859   1.000
    O108    O    0.19099   0.11391   0.35103   1.000
    O109    O    0.19098   0.61389   0.35103   1.000
    O110    O    0.69098   0.11391   0.35103   1.000
    O111    O    0.69098   0.61389   0.35103   1.000
    O112    O    0.19903   0.49537   0.37615   1.000
    O113    O    0.19903   0.99537   0.37619   1.000
    O114    O    0.69903   0.99537   0.37619   1.000
    O115    O    0.69903   0.49537   0.37619   1.000
    O116    O    0.24857   0.05310   0.37807   1.000
    O117    O    0.24857   0.55309   0.37807   1.000
    O118    O    0.74856   0.05310   0.37807   1.000
    O119    O    0.74856   0.55309   0.37807   1.000
    O120    O    0.22239   0.06573   0.26408   1.000
    O121    O    0.22239   0.56572   0.26408   1.000
    O122    O    0.72239   0.06573   0.26408   1.000
    O123    O    0.72238   0.56572   0.26408   1.000
    N124    N    0.56863   0.99051   0.80352   1.000
    O125    O    0.42902   0.03472   0.93970   1.000
    O126    O    0.61194   0.02152   0.62817   1.000
    N127    N    0.06857   0.49051   0.80353   1.000
    O128    O    0.92899   0.53471   0.93970   1.000
    O129    O    0.11191   0.52151   0.62817   1.000
    N130    N    0.06857   0.99051   0.80352   1.000
    O131    O    0.92899   0.03472   0.93970   1.000
    O132    O    0.11191   0.02152   0.62817   1.000
    N133    N    0.47330   0.56682   0.26142   1.000
    O134    O    0.43759   0.56154   0.28017   1.000
    O135    O    0.50900   0.57208   0.24268   1.000
    N136    N    0.56863   0.49051   0.80353   1.000
    O137    O    0.61194   0.52151   0.62817   1.000
    O138    O    0.42902   0.53471   0.93970   1.000
    N139    N    0.97330   0.56681   0.26140   1.000
    O140    O    0.93759   0.56154   0.28014   1.000
    O141    O    0.00900   0.57208   0.24266   1.000
    N142    N    0.72098   0.81654   0.26291   1.000
    O143    O    0.72290   0.78769   0.24556   1.000
    O144    O    0.71929   0.84534   0.28005   1.000
    N145    N    0.22099   0.31655   0.26289   1.000
    O146    O    0.21930   0.34535   0.28007   1.000
    O147    O    0.22292   0.28770   0.24555   1.000
    N148    N    0.97330   0.06683   0.26140   1.000
    O149    O    0.93759   0.06155   0.28014   1.000
    O150    O    0.00901   0.07209   0.24254   1.000
    N151    N    0.22099   0.81654   0.26292   1.000
    O152    O    0.22292   0.78769   0.24556   1.000
    O153    O    0.21930   0.84534   0.28008   1.000
    N154    N    0.72098   0.31655   0.26281   1.000
    O155    O    0.71929   0.34535   0.28002   1.000
    O156    O    0.72291   0.28770   0.24551   1.000
    N157    N    0.47330   0.06682   0.26141   1.000
    O158    O    0.50900   0.07209   0.24267   1.000
    O159    O    0.43759   0.06155   0.28015   1.000
loop_
    _geom_bond_atom_site_label_1
    _geom_bond_atom_site_label_2
    _geom_bond_distance
    _geom_bond_site_symmetry_2
    _ccdc_geom_bond_type
    Zr36   O56       1.03164      .   S
    Zr0    O56       1.03164      .   S
    Zr36   O57       0.63735      .   S
    Zr12   O57       0.63735      .   S
    Zr37   O58       1.03165      .   S
    Zr1    O58       1.03165      .   S
    Zr37   O59       0.63951      .   S
    Zr13   O59       0.63951      .   S
    Zr38   O60       1.03165      .   S
    Zr2    O60       1.03165      .   S
    Zr38   O61       0.63951      .   S
    Zr14   O61       0.63951      .   S
    Zr39   O62       1.03165      .   S
    Zr3    O62       1.03165      .   S
    Zr39   O63       0.63951      .   S
    Zr15   O63       0.63951      .   S
    Zr44   O64       1.03315      .   S
    Zr0    O64       1.03315      .   S
    Zr44   O65       0.64063      .   S
    Zr16   O65       0.64063      .   S
    Zr45   O66       1.03315      .   S
    Zr1    O66       1.03315      .   S
    Zr45   O67       0.64063      .   S
    Zr17   O67       0.64063      .   S
    Zr46   O68       1.03315      .   S
    Zr2    O68       1.03315      .   S
    Zr46   O69       0.64063      .   S
    Zr18   O69       0.64063      .   S
    Zr47   O70       1.03315      .   S
    Zr3    O70       1.03315      .   S
    Zr47   O71       0.64063      .   S
    Zr19   O71       0.64063      .   S
    Zr1    O72       1.03026      .   S
    Zr52   O72       1.03026      .   S
    Zr1    O73       1.04922      .   S
    Zr29   O73       1.04922      .   S
    Zr2    O74       1.03047      .   S
    Zr55   O74       1.03047  1_565   S
    Zr2    O75       1.04922      .   S
    Zr30   O75       1.04922      .   S
    Zr3    O76       1.03026      .   S
    Zr54   O76       1.03026      .   S
    Zr3    O77       1.04922      .   S
    Zr31   O77       1.04922      .   S
    Zr0    O78       1.03047      .   S
    Zr53   O78       1.03047  1_565   S
    Zr0    O79       1.04923      .   S
    Zr28   O79       1.04923      .   S
    Zr54   O80       0.63713      .   S
    Zr22   O80       0.63713      .   S
    Zr53   O81       0.63713      .   S
    Zr21   O81       0.63713      .   S
    Zr52   O82       0.63712      .   S
    Zr20   O82       0.63712      .   S
    Zr55   O83       0.63681      .   S
    Zr23   O83       0.63681      .   S
    Zr28   O84       0.63503      .   S
    Zr8    O84       0.63503      .   S
    Zr29   O85       0.63504      .   S
    Zr9    O85       0.63504      .   S
    Zr30   O86       0.63504      .   S
    Zr10   O86       0.63504      .   S
    Zr31   O87       0.63502      .   S
    Zr11   O87       0.63502      .   S
    Zr12   O88       0.63879      .   S
    Zr32   O88       0.63879      .   S
    Zr13   O89       0.63600      .   S
    Zr33   O89       0.63600      .   S
    Zr14   O90       0.63600      .   S
    Zr34   O90       0.63600      .   S
    Zr15   O91       0.63600      .   S
    Zr35   O91       0.63600      .   S
    Zr19   O92       0.63561      .   S
    Zr43   O92       0.63561      .   S
    Zr18   O93       0.63561      .   S
    Zr42   O93       0.63561      .   S
    Zr17   O94       0.63561      .   S
    Zr41   O94       0.63561      .   S
    Zr16   O95       0.63561      .   S
    Zr40   O95       0.63561      .   S
    Zr23   O96       0.63946      .   S
    Zr51   O96       0.63946      .   S
    Zr20   O97       0.63854      .   S
    Zr48   O97       0.63854      .   S
    Zr22   O98       0.63906      .   S
    Zr50   O98       0.63906      .   S
    Zr21   O99       0.63906      .   S
    Zr49   O99       0.63906      .   S
    Zr11   O100      0.63965      .   S
    Zr27   O100      0.63965      .   S
    Zr10   O101      0.63964      .   S
    Zr26   O101      0.63964      .   S
    Zr9    O102      0.63964      .   S
    Zr25   O102      0.63964      .   S
    Zr8    O103      0.63965      .   S
    Zr24   O103      0.63965      .   S
    Zr32   O104      1.04864      .   S
    Zr4    O104      1.04864      .   S
    Zr35   O105      1.04831      .   S
    Zr7    O105      1.04831      .   S
    Zr33   O106      1.04831      .   S
    Zr5    O106      1.04831      .   S
    Zr34   O107      1.04831      .   S
    Zr6    O107      1.04831      .   S
    Zr40   O108      1.04348      .   S
    Zr4    O108      1.04348      .   S
    Zr41   O109      1.04348      .   S
    Zr5    O109      1.04348      .   S
    Zr42   O110      1.04348      .   S
    Zr6    O110      1.04348      .   S
    Zr43   O111      1.04348      .   S
    Zr7    O111      1.04348      .   S
    Zr48   O112      1.03186      .   S
    Zr5    O112      1.03186      .   S
    Zr49   O113      1.03193      .   S
    Zr4    O113      1.03193  1_545   S
    Zr51   O114      1.03193      .   S
    Zr6    O114      1.03193  1_545   S
    Zr50   O115      1.03172      .   S
    Zr7    O115      1.03172      .   S
    Zr4    O116      1.03090      .   S
    Zr24   O116      1.03090      .   S
    Zr5    O117      1.03089      .   S
    Zr25   O117      1.03089      .   S
    Zr6    O118      1.03090      .   S
    Zr26   O118      1.03090      .   S
    Zr7    O119      1.03090      .   S
    Zr27   O119      1.03090      .   S
    Zr0    O120      1.43405      .   S
    Zr4    O120      1.43405      .   S
    Zr1    O121      1.43405      .   S
    Zr5    O121      1.43405      .   S
    Zr2    O122      1.43405      .   S
    Zr6    O122      1.43405      .   S
    Zr3    O123      1.43405      .   S
    Zr7    O123      1.43405      .   S
    N124   O125      2.78812  1_565   S
    Zr0    O125      3.73321  1_554   S
    N124   O126      2.22198  1_565   S
    Zr6    O126      3.22729      .   S
    N127   O128      2.78780  1_455   S
    Zr3    O128      3.73292  1_554   S
    N127   O129      2.22202      .   S
    Zr5    O129      3.22739      .   S
    N130   O131      2.78782  1_465   S
    Zr2    O131      3.73295  1_554   S
    N130   O132      2.22201  1_565   S
    Zr4    O132      3.22737      .   S
    N133   O134      0.62154      .   S
    Zr9    O134      1.32841      .   S
    N133   O135      0.62138      .   S
    Zr15   O135      1.32823      .   S
    N136   O137      2.22200      .   S
    Zr7    O137      3.22731      .   S
    N136   O138      2.78810      .   S
    Zr1    O138      3.73319  1_554   S
    N139   O140      0.62157      .   S
    Zr11   O140      1.32838      .   S
    N139   O141      0.62147  1_655   S
    Zr13   O141      1.32836      .   S
    N142   O143      0.62301      .   S
    Zr19   O143      1.33047      .   S
    N142   O144      0.62128      .   S
    Zr23   O144      1.32888      .   S
    N145   O146      0.62152      .   S
    Zr20   O146      1.32912      .   S
    N145   O147      0.62296      .   S
    Zr16   O147      1.33044      .   S
    N148   O149      0.62156      .   S
    Zr10   O149      1.32837      .   S
    N148   O150      0.62156  1_655   S
    Zr12   O150      1.32737      .   S
    N151   O152      0.62305      .   S
    Zr17   O152      1.33049      .   S
    N151   O153      0.62145      .   S
    Zr21   O153      1.32904      .   S
    N154   O155      0.62179      .   S
    Zr22   O155      1.32937      .   S
    N154   O156      0.62263      .   S
    Zr18   O156      1.33022      .   S
    N157   O158      0.62139      .   S
    Zr14   O158      1.32823      .   S
    N157   O159      0.62153      .   S
    Zr8    O159      1.32836      .   S
