# CIF file generated by openbabel 2.4.90, see http://openbabel.sf.net
data_I
_chemical_name_common ''
_cell_length_a 17.924
_cell_length_b 17.979
_cell_length_c 13.775
_cell_angle_alpha 73.331
_cell_angle_beta 71.911
_cell_angle_gamma 81.632
_space_group_name_H-M_alt 'P 1'
_space_group_name_Hall 'P 1'
loop_
    _symmetry_equiv_pos_as_xyz
    x,y,z
loop_
    _atom_site_label
    _atom_site_type_symbol
    _atom_site_fract_x
    _atom_site_fract_y
    _atom_site_fract_z
    _atom_site_occupancy
    N0      N    0.56863   0.99051   0.80352   1.000
    N1      N    0.06857   0.49051   0.80353   1.000
    N2      N    0.06857   0.99051   0.80352   1.000
    N3      N    0.47330   0.56682   0.26142   1.000
    N4      N    0.56863   0.49051   0.80353   1.000
    N5      N    0.97330   0.56681   0.26140   1.000
    N6      N    0.72098   0.81654   0.26291   1.000
    N7      N    0.22099   0.31655   0.26289   1.000
    N8      N    0.97330   0.06683   0.26140   1.000
    N9      N    0.22099   0.81654   0.26292   1.000
    N10     N    0.72098   0.31655   0.26281   1.000
    N11     N    0.47330   0.06682   0.26141   1.000
    Zr12    Zr   0.22260   0.06654   0.26220   1.000
    O13     O    0.11580   0.06932   0.25237   1.000
    O14     O    0.16726   0.04403   0.44518   1.000
    O15     O    0.22276   0.17712   0.25387   1.000
    O16     O    0.22095   0.95594   0.27114   1.000
    O17     O    0.33010   0.06404   0.27118   1.000
    O18     O    0.32581   0.05063   0.10095   1.000
    Zr19    Zr   0.72259   0.06654   0.26224   1.000
    O20     O    0.61580   0.06931   0.25245   1.000
    O21     O    0.66726   0.04403   0.44520   1.000
    O22     O    0.83009   0.06405   0.27119   1.000
    O23     O    0.72275   0.17712   0.25387   1.000
    O24     O    0.72094   0.95594   0.27115   1.000
    O25     O    0.82579   0.05063   0.10097   1.000
    Zr26    Zr   0.22260   0.56653   0.26223   1.000
    O27     O    0.22095   0.45594   0.27115   1.000
    O28     O    0.22276   0.67711   0.25390   1.000
    O29     O    0.11580   0.56930   0.25245   1.000
    O30     O    0.32581   0.55062   0.10097   1.000
    O31     O    0.33009   0.56404   0.27120   1.000
    O32     O    0.16725   0.54402   0.44520   1.000
    Zr33    Zr   0.72259   0.56653   0.26224   1.000
    O34     O    0.66726   0.54402   0.44520   1.000
    O35     O    0.72275   0.67711   0.25390   1.000
    O36     O    0.61580   0.56931   0.25246   1.000
    O37     O    0.82579   0.55062   0.10097   1.000
    O38     O    0.83009   0.56404   0.27119   1.000
    O39     O    0.72094   0.45594   0.27113   1.000
loop_
    _geom_bond_atom_site_label_1
    _geom_bond_atom_site_label_2
    _geom_bond_distance
    _geom_bond_site_symmetry_2
    _ccdc_geom_bond_type
    Zr12   O13       1.95303      .   S
    N8     O13       2.52475  1_655   S
    Zr12   O14       2.34097      .   S
    N2     O14       4.55726  1_565   S
    Zr12   O15       1.95867      .   S
    N7     O15       2.54041      .   S
    Zr12   O16       1.96074  1_545   S
    N9     O16       2.54101      .   S
    Zr12   O17       1.96200      .   S
    N11    O17       2.53542      .   S
    Zr12   O18       2.46915      .   S
    N0     O18       5.19563  1_566   S
    Zr19   O20       1.95274      .   S
    N11    O20       2.52486      .   S
    Zr19   O21       2.34071      .   S
    N0     O21       4.55697  1_565   S
    Zr19   O22       1.96191      .   S
    N8     O22       2.53536      .   S
    Zr19   O23       1.95855      .   S
    N10    O23       2.54005      .   S
    Zr19   O24       1.96084  1_545   S
    N6     O24       2.54107      .   S
    Zr19   O25       2.46923      .   S
    N2     O25       5.19539  1_466   S
    Zr26   O27       1.96065      .   S
    N7     O27       2.54099      .   S
    Zr26   O28       1.95858      .   S
    N9     O28       2.54035      .   S
    Zr26   O29       1.95282      .   S
    N5     O29       2.52506  1_655   S
    Zr26   O30       2.46932      .   S
    N4     O30       5.19575  1_556   S
    Zr26   O31       1.96195      .   S
    N3     O31       2.53533      .   S
    Zr26   O32       2.34076      .   S
    N1     O32       4.55707      .   S
    Zr33   O34       2.34069      .   S
    N4     O34       4.55696      .   S
    Zr33   O35       1.95857      .   S
    N6     O35       2.54031      .   S
    Zr33   O36       1.95276      .   S
    N3     O36       2.52486      .   S
    Zr33   O37       2.46924      .   S
    N1     O37       5.19538  1_456   S
    Zr33   O38       1.96187      .   S
    N5     O38       2.53533      .   S
    Zr33   O39       1.96073      .   S
    N10    O39       2.54125      .   S
