# CIF file generated by openbabel 2.4.90, see http://openbabel.sf.net
data_I
_chemical_name_common ''
_cell_length_a 18.597
_cell_length_b 22.63
_cell_length_c 16.545
_cell_angle_alpha 107.033
_cell_angle_beta 90.063
_cell_angle_gamma 114.039
_space_group_name_H-M_alt 'P 1'
_space_group_name_Hall 'P 1'
loop_
    _symmetry_equiv_pos_as_xyz
    x,y,z
loop_
    _atom_site_label
    _atom_site_type_symbol
    _atom_site_fract_x
    _atom_site_fract_y
    _atom_site_fract_z
    _atom_site_occupancy
    Zn0     Zn   0.07267   0.83591   0.72932   1.000
    Zn1     Zn   0.57267   0.33591   0.72932   1.000
    Zn2     Zn   0.57266   0.83591   0.72932   1.000
    Zn3     Zn   0.23741   0.16365   0.77075   1.000
    Zn4     Zn   0.23740   0.66365   0.77075   1.000
    Zn5     Zn   0.73739   0.16365   0.77075   1.000
    Zn6     Zn   0.73739   0.66365   0.77075   1.000
    Zn7     Zn   0.42732   0.16413   0.27070   1.000
    Zn8     Zn   0.42731   0.66413   0.27070   1.000
    Zn9     Zn   0.92731   0.16413   0.27070   1.000
    Zn10    Zn   0.92730   0.66413   0.27070   1.000
    Zn11    Zn   0.26259   0.33638   0.22927   1.000
    Zn12    Zn   0.26259   0.83638   0.22927   1.000
    Zn13    Zn   0.76258   0.33638   0.22927   1.000
    Zn14    Zn   0.76258   0.83638   0.22927   1.000
    Zn15    Zn   0.12467   0.00006   0.74999   1.000
    Zn16    Zn   0.12466   0.50007   0.74999   1.000
    Zn17    Zn   0.62465   0.00007   0.74999   1.000
    Zn18    Zn   0.62465   0.50007   0.74999   1.000
    Zn19    Zn   0.37533   0.99997   0.25000   1.000
    Zn20    Zn   0.37533   0.49998   0.25000   1.000
    Zn21    Zn   0.87532   0.99997   0.25000   1.000
    Zn22    Zn   0.87532   0.49997   0.25000   1.000
    Zn23    Zn   0.07268   0.33590   0.72932   1.000
