# CIF file generated by openbabel 2.4.90, see http://openbabel.sf.net
data_I
_chemical_name_common ''
_cell_length_a 18.597
_cell_length_b 22.63
_cell_length_c 16.545
_cell_angle_alpha 107.033
_cell_angle_beta 90.063
_cell_angle_gamma 114.039
_space_group_name_H-M_alt 'P 1'
_space_group_name_Hall 'P 1'
loop_
    _symmetry_equiv_pos_as_xyz
    x,y,z
loop_
    _atom_site_label
    _atom_site_type_symbol
    _atom_site_fract_x
    _atom_site_fract_y
    _atom_site_fract_z
    _atom_site_occupancy
    Zr0     Zr   0.07268   0.33590   0.72932   1.000
    Zr1     Zr   0.07267   0.83591   0.72932   1.000
    Zr2     Zr   0.57267   0.33591   0.72932   1.000
    Zr3     Zr   0.57266   0.83591   0.72932   1.000
    Zr4     Zr   0.23741   0.16365   0.77075   1.000
    Zr5     Zr   0.23740   0.66365   0.77075   1.000
    Zr6     Zr   0.73739   0.16365   0.77075   1.000
    Zr7     Zr   0.73739   0.66365   0.77075   1.000
    Zr8     Zr   0.42732   0.16413   0.27070   1.000
    Zr9     Zr   0.42731   0.66413   0.27070   1.000
    Zr10    Zr   0.92731   0.16413   0.27070   1.000
    Zr11    Zr   0.92730   0.66413   0.27070   1.000
    Zr12    Zr   0.26259   0.33638   0.22927   1.000
    Zr13    Zr   0.26259   0.83638   0.22927   1.000
    Zr14    Zr   0.76258   0.33638   0.22927   1.000
    Zr15    Zr   0.76258   0.83638   0.22927   1.000
    Zr16    Zr   0.12467   0.00006   0.74999   1.000
    Zr17    Zr   0.12466   0.50007   0.74999   1.000
    Zr18    Zr   0.62465   0.00007   0.74999   1.000
    Zr19    Zr   0.62465   0.50007   0.74999   1.000
    Zr20    Zr   0.37533   0.99997   0.25000   1.000
    Zr21    Zr   0.37533   0.49998   0.25000   1.000
    Zr22    Zr   0.87532   0.99997   0.25000   1.000
    Zr23    Zr   0.87532   0.49997   0.25000   1.000
    N24     N    0.59014   0.22071   0.14942   1.000
    O25     O    0.64756   0.26187   0.18017   1.000
    O26     O    0.53333   0.20131   0.19588   1.000
    O27     O    0.65182   0.19165   0.98779   1.000
    O28     O    0.59887   0.12383   0.97410   1.000
    N29     N    0.86981   0.78000   0.35053   1.000
    O30     O    0.83206   0.79935   0.30408   1.000
    O31     O    0.97538   0.87674   0.52578   1.000
    O32     O    0.88635   0.73879   0.31976   1.000
    O33     O    0.95997   0.80864   0.51225   1.000
    N34     N    0.40983   0.77932   0.85060   1.000
    O35     O    0.35242   0.73816   0.81985   1.000
    O36     O    0.46665   0.79873   0.80414   1.000
    O37     O    0.34816   0.80838   0.01223   1.000
    O38     O    0.40111   0.87620   0.02591   1.000
    N39     N    0.09015   0.22071   0.14941   1.000
    O40     O    0.14757   0.26187   0.18015   1.000
    O41     O    0.03334   0.20131   0.19588   1.000
    O42     O    0.09888   0.12383   0.97410   1.000
    O43     O    0.15183   0.19165   0.98779   1.000
    N44     N    0.13017   0.72003   0.64947   1.000
    O45     O    0.16792   0.70069   0.69592   1.000
    O46     O    0.02460   0.62329   0.47422   1.000
    O47     O    0.11363   0.76124   0.68025   1.000
    O48     O    0.04000   0.69140   0.48776   1.000
    N49     N    0.36982   0.28000   0.35053   1.000
    O50     O    0.45998   0.30864   0.51225   1.000
    O51     O    0.47538   0.37674   0.52578   1.000
    O52     O    0.38636   0.23879   0.31976   1.000
    O53     O    0.33207   0.29935   0.30409   1.000
    N54     N    0.13017   0.22003   0.64949   1.000
    O55     O    0.02461   0.12329   0.47423   1.000
    O56     O    0.16792   0.20068   0.69593   1.000
    O57     O    0.11363   0.26124   0.68026   1.000
    O58     O    0.04001   0.19139   0.48777   1.000
    N59     N    0.84111   0.56325   0.19059   1.000
    O60     O    0.85269   0.54869   0.21260   1.000
    O61     O    0.86568   0.58973   0.21777   1.000
    N62     N    0.09015   0.72072   0.14941   1.000
    O63     O    0.14757   0.76188   0.18015   1.000
    O64     O    0.03333   0.70131   0.19588   1.000
    O65     O    0.09888   0.62384   0.97410   1.000
    O66     O    0.15183   0.69165   0.98779   1.000
    N67     N    0.63016   0.72004   0.64944   1.000
    O68     O    0.66790   0.70069   0.69591   1.000
    O69     O    0.61361   0.76125   0.68024   1.000
    O70     O    0.52460   0.62330   0.47421   1.000
    O71     O    0.54000   0.69140   0.48774   1.000
    N72     N    0.40984   0.27932   0.85060   1.000
    O73     O    0.35242   0.23816   0.81985   1.000
    O74     O    0.34816   0.30838   0.01222   1.000
    O75     O    0.46665   0.29872   0.80414   1.000
    O76     O    0.40111   0.37620   0.02591   1.000
    N77     N    0.59014   0.72072   0.14941   1.000
    O78     O    0.64756   0.76188   0.18017   1.000
    O79     O    0.59887   0.62384   0.97410   1.000
    O80     O    0.53333   0.70131   0.19588   1.000
    O81     O    0.65182   0.69166   0.98779   1.000
    N82     N    0.86981   0.28000   0.35052   1.000
    O83     O    0.97538   0.37674   0.52578   1.000
    O84     O    0.83206   0.29934   0.30409   1.000
    O85     O    0.88635   0.23879   0.31975   1.000
    O86     O    0.95998   0.30864   0.51225   1.000
    N87     N    0.63016   0.22003   0.64949   1.000
    O88     O    0.54001   0.19139   0.48777   1.000
    O89     O    0.66791   0.20068   0.69593   1.000
    O90     O    0.52461   0.12329   0.47423   1.000
    O91     O    0.61362   0.26124   0.68026   1.000
    N92     N    0.90983   0.77932   0.85060   1.000
    O93     O    0.96665   0.79873   0.80413   1.000
    O94     O    0.85241   0.73816   0.81985   1.000
    O95     O    0.84815   0.80838   0.01222   1.000
    O96     O    0.90110   0.87620   0.02590   1.000
    N97     N    0.90983   0.27932   0.85060   1.000
    O98     O    0.96665   0.29872   0.80414   1.000
    O99     O    0.84815   0.30838   0.01222   1.000
    O100    O    0.85241   0.23815   0.81985   1.000
    O101    O    0.90110   0.37620   0.02591   1.000
    N102    N    0.36981   0.78000   0.35053   1.000
    O103    O    0.45997   0.80864   0.51225   1.000
    O104    O    0.33207   0.79935   0.30408   1.000
    O105    O    0.38636   0.73880   0.31976   1.000
    O106    O    0.47537   0.87674   0.52578   1.000
    N107    N    0.65886   0.43679   0.80944   1.000
    O108    O    0.64728   0.45135   0.78741   1.000
    O109    O    0.63428   0.41031   0.78224   1.000
    N110    N    0.65885   0.93679   0.80944   1.000
    O111    O    0.64727   0.95135   0.78741   1.000
    O112    O    0.63427   0.91032   0.78224   1.000
    N113    N    0.27724   0.93758   0.30901   1.000
    O114    O    0.30353   0.95189   0.28710   1.000
    O115    O    0.27534   0.91100   0.28192   1.000
    N116    N    0.34113   0.06325   0.19059   1.000
    O117    O    0.36570   0.08972   0.21777   1.000
    O118    O    0.35270   0.04868   0.21260   1.000
    N119    N    0.27725   0.43758   0.30901   1.000
    O120    O    0.30353   0.45189   0.28710   1.000
    O121    O    0.27535   0.41099   0.28192   1.000
    N122    N    0.15887   0.43679   0.80944   1.000
    O123    O    0.14729   0.45135   0.78741   1.000
    O124    O    0.13429   0.41031   0.78224   1.000
    N125    N    0.77723   0.43757   0.30902   1.000
    O126    O    0.80352   0.45189   0.28710   1.000
    O127    O    0.77534   0.41099   0.28192   1.000
    N128    N    0.15886   0.93679   0.80944   1.000
    O129    O    0.14729   0.95135   0.78741   1.000
    O130    O    0.13429   0.91031   0.78224   1.000
    N131    N    0.84112   0.06325   0.19059   1.000
    O132    O    0.85269   0.04868   0.21260   1.000
    O133    O    0.86569   0.08972   0.21777   1.000
    N134    N    0.77723   0.93758   0.30902   1.000
    O135    O    0.80352   0.95189   0.28710   1.000
    O136    O    0.77533   0.91100   0.28192   1.000
    N137    N    0.34112   0.56326   0.19059   1.000
    O138    O    0.35270   0.54869   0.21260   1.000
    O139    O    0.36570   0.58973   0.21777   1.000
    N140    N    0.72273   0.06246   0.69100   1.000
    O141    O    0.72463   0.08904   0.71809   1.000
    O142    O    0.69645   0.04814   0.71290   1.000
    N143    N    0.72273   0.56246   0.69100   1.000
    O144    O    0.72463   0.58904   0.71809   1.000
    O145    O    0.69645   0.54815   0.71290   1.000
    N146    N    0.22275   0.06245   0.69100   1.000
    O147    O    0.22465   0.08904   0.71810   1.000
    O148    O    0.19646   0.04814   0.71291   1.000
    N149    N    0.22274   0.56246   0.69100   1.000
    O150    O    0.22464   0.58904   0.71810   1.000
    O151    O    0.19646   0.54814   0.71291   1.000
loop_
    _geom_bond_atom_site_label_1
    _geom_bond_atom_site_label_2
    _geom_bond_distance
    _geom_bond_site_symmetry_2
    _ccdc_geom_bond_type
    N24    O25       1.08515      .   S
    Zr14   O25       2.08170      .   S
    N24    O26       1.31218      .   S
    Zr8    O26       2.32188      .   S
    N24    O27       2.91378  1_554   S
    Zr6    O27       3.91528      .   S
    N24    O28       3.13235  1_554   S
    Zr18   O28       4.10331      .   S
    N29    O30       1.31197      .   S
    Zr15   O30       2.32175      .   S
    N29    O31       3.13390      .   S
    Zr16   O31       4.10579  1_445   S
    N29    O32       1.08602      .   S
    Zr11   O32       2.08325      .   S
    N29    O33       2.91208      .   S
    Zr1    O33       3.91195  1_455   S
    N34    O35       1.08514      .   S
    Zr5    O35       2.08171      .   S
    N34    O36       1.31215      .   S
    Zr3    O36       2.32186      .   S
    N34    O37       2.91380  1_556   S
    Zr13   O37       3.91532      .   S
    N34    O38       3.13229  1_556   S
    Zr20   O38       4.10302      .   S
    N39    O40       1.08510      .   S
    Zr12   O40       2.08179      .   S
    N39    O41       1.31226      .   S
    Zr10   O41       2.32213  1_655   S
    N39    O42       3.13235  1_554   S
    Zr16   O42       4.10330      .   S
    N39    O43       2.91377  1_554   S
    Zr4    O43       3.91527      .   S
    N44    O45       1.31203      .   S
    Zr5    O45       2.32199      .   S
    N44    O46       3.13383      .   S
    Zr23   O46       4.10589  1_655   S
    N44    O47       1.08607      .   S
    Zr1    O47       2.08330      .   S
    N44    O48       2.91190      .   S
    Zr11   O48       3.91179  1_655   S
    N49    O50       2.91197      .   S
    Zr2    O50       3.91186      .   S
    N49    O51       3.13382      .   S
    Zr19   O51       4.10569      .   S
    N49    O52       1.08604      .   S
    Zr8    O52       2.08327      .   S
    N49    O53       1.31186      .   S
    Zr12   O53       2.32182      .   S
    N54    O55       3.13394      .   S
    Zr22   O55       4.10599  1_665   S
    N54    O56       1.31193      .   S
    Zr4    O56       2.32189      .   S
    N54    O57       1.08604      .   S
    Zr0    O57       2.08327      .   S
    N54    O58       2.91202      .   S
    Zr10   O58       3.91191  1_655   S
    N59    O60       0.64467      .   S
    Zr23   O60       1.59765      .   S
    N59    O61       0.62353      .   S
    Zr11   O61       1.57383      .   S
    N62    O63       1.08510      .   S
    Zr13   O63       2.08180      .   S
    N62    O64       1.31226      .   S
    Zr11   O64       2.32213  1_655   S
    N62    O65       3.13236  1_554   S
    Zr17   O65       4.10331      .   S
    N62    O66       2.91377  1_554   S
    Zr5    O66       3.91527      .   S
    N67    O68       1.31217      .   S
    Zr7    O68       2.32212      .   S
    N67    O69       1.08614      .   S
    Zr3    O69       2.08337      .   S
    N67    O70       3.13360      .   S
    Zr21   O70       4.10564      .   S
    N67    O71       2.91161      .   S
    Zr9    O71       3.91149      .   S
    N72    O73       1.08514      .   S
    Zr4    O73       2.08171      .   S
    N72    O74       2.91361  1_556   S
    Zr12   O74       3.91550      .   S
    N72    O75       1.31216      .   S
    Zr2    O75       2.32188      .   S
    N72    O76       3.13233  1_556   S
    Zr21   O76       4.10314      .   S
    N77    O78       1.08515      .   S
    Zr15   O78       2.08171      .   S
    N77    O79       3.13238  1_554   S
    Zr19   O79       4.10328      .   S
    N77    O80       1.31218      .   S
    Zr9    O80       2.32189      .   S
    N77    O81       2.91377  1_554   S
    Zr7    O81       3.91528      .   S
    N82    O83       3.13393      .   S
    Zr17   O83       4.10575  1_455   S
    N82    O84       1.31187      .   S
    Zr14   O84       2.32183      .   S
    N82    O85       1.08601      .   S
    Zr10   O85       2.08324      .   S
    N82    O86       2.91208      .   S
    Zr0    O86       3.91198  1_455   S
    N87    O88       2.91190      .   S
    Zr8    O88       3.91182      .   S
    N87    O89       1.31192      .   S
    Zr6    O89       2.32189      .   S
    N87    O90       3.13388      .   S
    Zr20   O90       4.10588  1_565   S
    N87    O91       1.08607      .   S
    Zr2    O91       2.08331      .   S
    N92    O93       1.31221      .   S
    Zr1    O93       2.32209  1_455   S
    N92    O94       1.08515      .   S
    Zr7    O94       2.08172      .   S
    N92    O95       2.91364  1_556   S
    Zr15   O95       3.91553      .   S
    N92    O96       3.13222  1_556   S
    Zr22   O96       4.10313      .   S
    N97    O98       1.31222      .   S
    Zr0    O98       2.32210  1_455   S
    N97    O99       2.91362  1_556   S
    Zr14   O99       3.91551      .   S
    N97    O100      1.08516      .   S
    Zr6    O100      2.08173      .   S
    N97    O101      3.13235  1_556   S
    Zr23   O101      4.10310      .   S
    N102   O103      2.91195      .   S
    Zr3    O103      3.91185      .   S
    N102   O104      1.31195      .   S
    Zr13   O104      2.32173      .   S
    N102   O105      1.08604      .   S
    Zr9    O105      2.08327      .   S
    N102   O106      3.13384      .   S
    Zr18   O106      4.10569  1_545   S
    N107   O108      0.64479      .   S
    Zr19   O108      1.59788      .   S
    N107   O109      0.62354      .   S
    Zr2    O109      1.57384      .   S
    N110   O111      0.64472      .   S
    Zr18   O111      1.59768  1_545   S
    N110   O112      0.62354      .   S
    Zr3    O112      1.57385      .   S
    N113   O114      0.64461      .   S
    Zr20   O114      1.59783      .   S
    N113   O115      0.62352      .   S
    Zr13   O115      1.57405      .   S
    N116   O117      0.62353      .   S
    Zr8    O117      1.57384      .   S
    N116   O118      0.64466      .   S
    Zr20   O118      1.59762  1_565   S
    N119   O120      0.64460      .   S
    Zr21   O120      1.59782      .   S
    N119   O121      0.62352      .   S
    Zr12   O121      1.57404      .   S
    N122   O123      0.64478      .   S
    Zr17   O123      1.59787      .   S
    N122   O124      0.62354      .   S
    Zr0    O124      1.57385      .   S
    N125   O126      0.64462      .   S
    Zr23   O126      1.59784      .   S
    N125   O127      0.62353      .   S
    Zr14   O127      1.57404      .   S
    N128   O129      0.64472      .   S
    Zr16   O129      1.59768  1_545   S
    N128   O130      0.62354      .   S
    Zr1    O130      1.57385      .   S
    N131   O132      0.64466      .   S
    Zr22   O132      1.59762  1_565   S
    N131   O133      0.62352      .   S
    Zr10   O133      1.57383      .   S
    N134   O135      0.64463      .   S
    Zr22   O135      1.59783      .   S
    N134   O136      0.62354      .   S
    Zr15   O136      1.57406      .   S
    N137   O138      0.64466      .   S
    Zr21   O138      1.59763      .   S
    N137   O139      0.62352      .   S
    Zr9    O139      1.57382      .   S
    N140   O141      0.62352      .   S
    Zr6    O141      1.57404      .   S
    N140   O142      0.64452      .   S
    Zr18   O142      1.59762      .   S
    N143   O144      0.62352      .   S
    Zr7    O144      1.57404      .   S
    N143   O145      0.64451      .   S
    Zr19   O145      1.59761      .   S
    N146   O147      0.62353      .   S
    Zr4    O147      1.57403      .   S
    N146   O148      0.64453      .   S
    Zr16   O148      1.59759      .   S
    N149   O150      0.62352      .   S
    Zr5    O150      1.57403      .   S
    N149   O151      0.64453      .   S
    Zr17   O151      1.59759      .   S
