# CIF file generated by openbabel 2.4.90, see http://openbabel.sf.net
data_I
_chemical_name_common ''
_cell_length_a 13.167
_cell_length_b 13.258
_cell_length_c 22.407
_cell_angle_alpha 89.986
_cell_angle_beta 89.981
_cell_angle_gamma 102.493
_space_group_name_H-M_alt 'P 1'
_space_group_name_Hall 'P 1'
loop_
    _symmetry_equiv_pos_as_xyz
    x,y,z
loop_
    _atom_site_label
    _atom_site_type_symbol
    _atom_site_fract_x
    _atom_site_fract_y
    _atom_site_fract_z
    _atom_site_occupancy
    Zn0     Zn   0.25316   0.14554   0.95348   1.000
    Zn1     Zn   0.77315   0.88080   0.32836   1.000
    Zn2     Zn   0.74681   0.85435   0.45348   1.000
    Zn3     Zn   0.22689   0.11916   0.82830   1.000
    C4      C    0.25469   0.33226   0.88117   1.000
    C5      C    0.23202   0.93193   0.89631   1.000
    C6      C    0.04062   0.11967   0.90223   1.000
    C7      C    0.44045   0.14942   0.88310   1.000
    C8      C    0.74533   0.66768   0.38110   1.000
    C9      C    0.76797   0.06799   0.39622   1.000
    C10     C    0.95936   0.88026   0.40224   1.000
    C11     C    0.55956   0.85052   0.38319   1.000
    O12     O    0.40904   0.16917   0.93470   1.000
    O13     O    0.38497   0.12930   0.83635   1.000
    O14     O    0.07473   0.11574   0.84920   1.000
    O15     O    0.09174   0.11577   0.95003   1.000
    O16     O    0.24845   0.98770   0.94300   1.000
    O17     O    0.20770   0.96141   0.84503   1.000
    O18     O    0.25403   0.29757   0.93432   1.000
    O19     O    0.25414   0.27982   0.83340   1.000
    O20     O    0.59094   0.83077   0.43478   1.000
    O21     O    0.61508   0.87065   0.33636   1.000
    O22     O    0.92529   0.88421   0.34923   1.000
    O23     O    0.90821   0.88415   0.45005   1.000
    O24     O    0.75157   0.01220   0.44297   1.000
    O25     O    0.79227   0.03854   0.34490   1.000
    O26     O    0.74598   0.70233   0.43433   1.000
    O27     O    0.74588   0.72015   0.33349   1.000
loop_
    _geom_bond_atom_site_label_1
    _geom_bond_atom_site_label_2
    _geom_bond_distance
    _geom_bond_site_symmetry_2
    _ccdc_geom_bond_type
    Zn1    O27       2.08509      .   S
    Zn1    O21       2.06410      .   S
    Zn1    O25       2.08495  1_565   S
    Zn1    O22       2.04822      .   S
    O27    C8        1.27260      .   S
    O21    C11       1.27342      .   S
    O25    C9        1.27716      .   S
    O22    C10       1.27490      .   S
    C8     O26       1.27760      .   S
    C11    O20       1.27382      .   S
    C9     O24       1.27340      .   S
    C10    O23       1.27223      .   S
    O26    Zn2       2.05847      .   S
    O20    Zn2       2.05139      .   S
    O24    Zn2       2.09330  1_545   S
    O23    Zn2       2.07721      .   S
    Zn3    O19       2.08537      .   S
    Zn3    O13       2.06454      .   S
    Zn3    O17       2.08547  1_545   S
    Zn3    O14       2.04817      .   S
    O19    C4        1.27564      .   S
    O13    C7        1.27220      .   S
    O17    C5        1.27663      .   S
    O14    C6        1.27523      .   S
    C4     O18       1.27588      .   S
    C7     O12       1.27402      .   S
    C5     O16       1.27258      .   S
    C6     O15       1.27216      .   S
    O18    Zn0       2.05842      .   S
    O12    Zn0       2.05160      .   S
    O16    Zn0       2.09332  1_565   S
    O15    Zn0       2.07759      .   S
    Zn3    Zn0       2.83872      .   S
    Zn1    Zn2       2.83716      .   S
