# CIF file generated by openbabel 2.4.90, see http://openbabel.sf.net
data_I
_chemical_name_common ''
_cell_length_a 13.167
_cell_length_b 13.258
_cell_length_c 22.407
_cell_angle_alpha 89.986
_cell_angle_beta 89.981
_cell_angle_gamma 102.493
_space_group_name_H-M_alt 'P 1'
_space_group_name_Hall 'P 1'
loop_
    _symmetry_equiv_pos_as_xyz
    x,y,z
loop_
    _atom_site_label
    _atom_site_type_symbol
    _atom_site_fract_x
    _atom_site_fract_y
    _atom_site_fract_z
    _atom_site_occupancy
    C0      C    0.25469   0.33226   0.88117   1.000
    C1      C    0.23202   0.93193   0.89631   1.000
    C2      C    0.04062   0.11967   0.90223   1.000
    C3      C    0.44045   0.14942   0.88310   1.000
    C4      C    0.74533   0.66768   0.38110   1.000
    C5      C    0.76797   0.06799   0.39622   1.000
    C6      C    0.95936   0.88026   0.40224   1.000
    C7      C    0.55956   0.85052   0.38319   1.000
