# CIF file generated by openbabel 2.4.90, see http://openbabel.sf.net
data_I
_chemical_name_common ''
_cell_length_a 14.132
_cell_length_b 18.093
_cell_length_c 19.553
_cell_angle_alpha 98.827
_cell_angle_beta 90.064
_cell_angle_gamma 90.027
_space_group_name_H-M_alt 'P 1'
_space_group_name_Hall 'P 1'
loop_
    _symmetry_equiv_pos_as_xyz
    x,y,z
loop_
    _atom_site_label
    _atom_site_type_symbol
    _atom_site_fract_x
    _atom_site_fract_y
    _atom_site_fract_z
    _atom_site_occupancy
    Cd0     Cd   0.19300   0.66485   0.35020   1.000
    Cd1     Cd   0.12604   0.47632   0.98006   1.000
    Cd2     Cd   0.26448   0.60045   0.16113   1.000
    Cd3     Cd   0.20845   0.18357   0.96324   1.000
    Cd4     Cd   0.19312   0.33511   0.14973   1.000
    Cd5     Cd   0.12623   0.52380   0.51994   1.000
    Cd6     Cd   0.26419   0.39954   0.33889   1.000
    Cd7     Cd   0.79114   0.18364   0.46290   1.000
    Cd8     Cd   0.80702   0.33510   0.64965   1.000
    Cd9     Cd   0.87399   0.52373   0.02000   1.000
    Cd10    Cd   0.73556   0.39960   0.83886   1.000
    Cd11    Cd   0.79158   0.81645   0.03671   1.000
    Cd12    Cd   0.80696   0.66488   0.85020   1.000
    Cd13    Cd   0.87380   0.47630   0.48010   1.000
    Cd14    Cd   0.73578   0.60052   0.66114   1.000
    Cd15    Cd   0.20884   0.81634   0.53697   1.000
    C16     C    0.07198   0.80705   0.42149   1.000
    C17     C    0.89994   0.80850   0.15230   1.000
    C18     C    0.02136   0.61100   0.44527   1.000
    C19     C    0.06492   0.59419   0.22465   1.000
    C20     C    0.28706   0.55484   0.99280   1.000
    C21     C    0.61665   0.74701   0.02110   1.000
    C22     C    0.32933   0.43585   0.11822   1.000
    C23     C    0.45328   0.62028   0.23739   1.000
    O24     O    0.15194   0.77086   0.42108   1.000
    O25     O    0.04123   0.84619   0.47491   1.000
    O26     O    0.86005   0.86897   0.14099   1.000
    O27     O    0.90488   0.74939   0.10819   1.000
    O28     O    0.11017   0.60676   0.43870   1.000
    C29     C    0.07201   0.19265   0.07872   1.000
    C30     C    0.89848   0.19191   0.34718   1.000
    C31     C    0.02131   0.38882   0.05440   1.000
    C32     C    0.06479   0.40576   0.27496   1.000
    C33     C    0.28705   0.44519   0.50718   1.000
    C34     C    0.61636   0.25303   0.47891   1.000
    C35     C    0.32932   0.56417   0.38168   1.000
    C36     C    0.45279   0.37968   0.26265   1.000
    C37     C    0.92805   0.19287   0.57840   1.000
    C38     C    0.10008   0.19151   0.84757   1.000
    C39     C    0.97867   0.38901   0.55468   1.000
    C40     C    0.93506   0.40580   0.77526   1.000
    C41     C    0.71295   0.44525   0.00720   1.000
    C42     C    0.38340   0.25302   0.97888   1.000
    C43     C    0.67067   0.56419   0.88170   1.000
    C44     C    0.54675   0.37974   0.76260   1.000
    C45     C    0.92804   0.80734   0.92125   1.000
    C46     C    0.10156   0.80806   0.65279   1.000
    C47     C    0.97872   0.61119   0.94559   1.000
    C48     C    0.93525   0.59424   0.72500   1.000
    C49     C    0.71299   0.55491   0.49280   1.000
    C50     C    0.38363   0.74699   0.52106   1.000
    C51     C    0.67072   0.43587   0.61827   1.000
    C52     C    0.54714   0.62030   0.73731   1.000
    O53     O    0.98007   0.57792   0.49097   1.000
    O54     O    0.14704   0.62506   0.24042   1.000
    O55     O    0.04500   0.55953   0.16650   1.000
    O56     O    0.25506   0.52773   0.93272   1.000
    O57     O    0.23830   0.54472   0.04640   1.000
    O58     O    0.62129   0.79993   0.98607   1.000
    O59     O    0.68323   0.73089   0.06120   1.000
    O60     O    0.27588   0.47120   0.16420   1.000
    O61     O    0.32041   0.36614   0.09629   1.000
    O62     O    0.37162   0.65302   0.23635   1.000
    O63     O    0.50990   0.62834   0.28645   1.000
    O64     O    0.15208   0.22880   0.07932   1.000
    O65     O    0.04127   0.15351   0.02523   1.000
    O66     O    0.86002   0.13103   0.35897   1.000
    O67     O    0.90177   0.25149   0.39091   1.000
    O68     O    0.11013   0.39309   0.06112   1.000
    O69     O    0.98001   0.42203   0.00875   1.000
    O70     O    0.14688   0.37489   0.25935   1.000
    O71     O    0.04493   0.44039   0.33304   1.000
    O72     O    0.25516   0.47222   0.56725   1.000
    O73     O    0.23827   0.45544   0.45355   1.000
    O74     O    0.62119   0.20009   0.51392   1.000
    O75     O    0.68276   0.26919   0.43877   1.000
    O76     O    0.27578   0.52880   0.33561   1.000
    O77     O    0.32050   0.63389   0.40359   1.000
    O78     O    0.37105   0.34697   0.26362   1.000
    O79     O    0.50939   0.37157   0.21367   1.000
    O80     O    0.84811   0.22910   0.57881   1.000
    O81     O    0.95880   0.15369   0.52505   1.000
    O82     O    0.13998   0.13104   0.85897   1.000
    O83     O    0.09514   0.25062   0.89176   1.000
    O84     O    0.88985   0.39326   0.56125   1.000
    O85     O    0.01999   0.42212   0.50902   1.000
    O86     O    0.85293   0.37494   0.75950   1.000
    O87     O    0.95500   0.44045   0.83336   1.000
    O88     O    0.74498   0.47228   0.06729   1.000
    O89     O    0.76166   0.45547   0.95359   1.000
    O90     O    0.37875   0.20010   0.01391   1.000
    O91     O    0.31682   0.26913   0.93877   1.000
    O92     O    0.72412   0.52884   0.83570   1.000
    O93     O    0.67960   0.63391   0.90365   1.000
    O94     O    0.62841   0.34701   0.76365   1.000
    O95     O    0.49014   0.37166   0.71353   1.000
    O96     O    0.84796   0.77121   0.92064   1.000
    O97     O    0.95877   0.84649   0.97474   1.000
    O98     O    0.13999   0.86895   0.64098   1.000
    O99     O    0.09827   0.74848   0.60907   1.000
    O100    O    0.88990   0.60693   0.93887   1.000
    O101    O    0.02001   0.57799   0.99125   1.000
    O102    O    0.85317   0.62511   0.74062   1.000
    O103    O    0.95511   0.55961   0.66690   1.000
    O104    O    0.74485   0.52779   0.43277   1.000
    O105    O    0.76182   0.54479   0.54646   1.000
    O106    O    0.37882   0.79994   0.48600   1.000
    O107    O    0.31724   0.73082   0.56119   1.000
    O108    O    0.72427   0.47124   0.66433   1.000
    O109    O    0.67954   0.36615   0.59636   1.000
    O110    O    0.62887   0.65303   0.73637   1.000
    O111    O    0.49052   0.62839   0.78628   1.000
    Ts112   Ts   0.31747   0.58479   0.14451   1.000
    Ts113   Ts   0.25485   0.63945   0.14857   1.000
    Ts114   Ts   0.21372   0.14364   0.97379   1.000
    Ts115   Ts   0.31719   0.41521   0.35551   1.000
    Ts116   Ts   0.25453   0.36052   0.35145   1.000
    Ts117   Ts   0.78602   0.14369   0.47350   1.000
    Ts118   Ts   0.68256   0.41527   0.85547   1.000
    Ts119   Ts   0.74519   0.36061   0.85143   1.000
    Ts120   Ts   0.78631   0.85638   0.02615   1.000
    Ts121   Ts   0.68279   0.58483   0.64450   1.000
    Ts122   Ts   0.74546   0.63953   0.64859   1.000
    Ts123   Ts   0.21396   0.85628   0.52639   1.000
    Og124   Og   0.05463   0.80606   0.39908   1.000
    Og125   Og   0.91365   0.80848   0.17599   1.000
    Og126   Og   0.00170   0.62627   0.43088   1.000
    Og127   Og   0.04109   0.59611   0.24433   1.000
    Og128   Og   0.31667   0.56947   0.99577   1.000
    Og129   Og   0.58771   0.73066   0.01927   1.000
    Og130   Og   0.35606   0.44836   0.10709   1.000
    Og131   Og   0.46356   0.60127   0.21625   1.000
    Og132   Og   0.05460   0.19369   0.10108   1.000
    Og133   Og   0.91232   0.19188   0.32357   1.000
    Og134   Og   0.00166   0.37348   0.06871   1.000
    Og135   Og   0.04099   0.40383   0.25521   1.000
    Og136   Og   0.31663   0.43055   0.50422   1.000
    Og137   Og   0.58744   0.26936   0.48061   1.000
    Og138   Og   0.35604   0.55166   0.39284   1.000
    Og139   Og   0.46312   0.39870   0.28379   1.000
    Og140   Og   0.94540   0.19387   0.60082   1.000
    Og141   Og   0.08637   0.19153   0.82391   1.000
    Og142   Og   0.99832   0.37372   0.56906   1.000
    Og143   Og   0.95671   0.40387   0.75557   1.000
    Og144   Og   0.68334   0.43061   0.00423   1.000
    Og145   Og   0.41234   0.26936   0.98069   1.000
    Og146   Og   0.64394   0.55169   0.89284   1.000
    Og147   Og   0.53646   0.39875   0.78173   1.000
    Og148   Og   0.94545   0.80630   0.89889   1.000
    Og149   Og   0.08773   0.80810   0.67640   1.000
    Og150   Og   0.99838   0.62652   0.93127   1.000
    Og151   Og   0.95684   0.59616   0.74475   1.000
    Og152   Og   0.68340   0.56953   0.49576   1.000
    Og153   Og   0.41256   0.73066   0.51923   1.000
    Og154   Og   0.64401   0.44837   0.60711   1.000
    Og155   Og   0.53683   0.60129   0.71617   1.000
loop_
    _geom_bond_atom_site_label_1
    _geom_bond_atom_site_label_2
    _geom_bond_distance
    _geom_bond_site_symmetry_2
    _ccdc_geom_bond_type
    C41    O88       1.28331      .   S
    C41    O89       1.29144  1_554   S
    O69    Cd9       2.35759      .   S
    O69    C31       1.28929  1_655   S
    O90    C42       1.26156  1_554   S
    Cd9    O88       2.30478      .   S
    Cd9    O100      2.35923  1_554   S
    Cd9    O89       2.28761  1_554   S
    C21    O59       1.28602      .   S
    C21    O58       1.26161  1_554   S
    O65    C29       1.24726      .   S
    Cd11   O59       2.27973      .   S
    Cd11   O26       2.32311      .   S
    O57    Cd1       2.28731  1_554   S
    O57    C20       1.29114  1_554   S
    C31    O68       1.26300      .   S
    O68    Cd1       2.35874  1_554   S
    C29    O64       1.30579      .   S
    O64    Cd4       2.26187      .   S
    O61    C22       1.27463      .   S
    O61    Cd4       2.19689      .   S
    O27    C17       1.26868      .   S
    C22    O60       1.27013      .   S
    O26    C17       1.27998      .   S
    Cd4    O70       2.25149      .   S
    Cd2    O60       2.35420      .   S
    Cd2    O62       2.21912      .   S
    O55    C19       1.24319      .   S
    O79    C36       1.23979      .   S
    C19    O54       1.30372      .   S
    O62    C23       1.29905      .   S
    C23    O63       1.23975      .   S
    O54    Cd0       2.25163      .   S
    O70    C32       1.30382      .   S
    C36    O78       1.29922      .   S
    O78    Cd6       2.21993      .   S
    C32    O71       1.24241      .   S
    O76    Cd6       2.35509      .   S
    O76    C35       1.27060      .   S
    C30    O66       1.28052      .   S
    C30    O67       1.26971      .   S
    Cd0    O77       2.19699      .   S
    Cd0    O24       2.26336      .   S
    O66    Cd7       2.32269      .   S
    C35    O77       1.27468      .   S
    O67    Cd7       2.54283      .   S
    O24    C16       1.30580      .   S
    C16    O25       1.24722      .   S
    O104   Cd13      2.30388      .   S
    O104   C49       1.28289      .   S
    O28    C18       1.26300      .   S
    O28    Cd5       2.35781      .   S
    O75    Cd7       2.27797      .   S
    O75    C34       1.28595      .   S
    C18    O53       1.28923  1_455   S
    O73    C33       1.29127      .   S
    O73    Cd5       2.28814      .   S
    C34    O74       1.26169      .   S
    Cd13   O53       2.35740      .   S
    Cd13   O105      2.28833      .   S
    Cd13   O84       2.35746      .   S
    O106   C50       1.26247      .   S
    C49    O105      1.29154      .   S
    C33    O72       1.28331      .   S
    O85    Cd5       2.35797      .   S
    O85    C39       1.28909  1_455   S
    Cd5    O72       2.30423      .   S
    C50    O107      1.28588      .   S
    O81    C37       1.24652      .   S
    Cd15   O107      2.27822      .   S
    Cd15   O99       2.54381      .   S
    Cd15   O98       2.32377      .   S
    C39    O84       1.26308      .   S
    C37    O80       1.30583      .   S
    O80    Cd8       2.26306      .   S
    O109   C51       1.27472      .   S
    O109   Cd8       2.19626      .   S
    O99    C46       1.26972      .   S
    C51    O108      1.27056      .   S
    O98    C46       1.28056      .   S
    Cd8    O86       2.25281      .   S
    Cd14   O108      2.35489      .   S
    Cd14   O110      2.21964      .   S
    O103   C48       1.24267      .   S
    O95    C44       1.23976      .   S
    C48    O102      1.30383      .   S
    O110   C52       1.29921      .   S
    C52    O111      1.23984      .   S
    O102   Cd12      2.25065      .   S
    O86    C40       1.30370      .   S
    C44    O94       1.29903      .   S
    O94    Cd10      2.21926      .   S
    C40    O87       1.24241      .   S
    O92    Cd10      2.35417      .   S
    O92    C43       1.27048      .   S
    C38    O82       1.28050      .   S
    C38    O83       1.26956      .   S
    Cd12   O93       2.19743      .   S
    Cd12   O96       2.26219      .   S
    O82    Cd3       2.32299      .   S
    C43    O93       1.27472      .   S
    O96    C45       1.30579      .   S
    C45    O97       1.24722      .   S
    O56    Cd1       2.30488      .   S
    O56    C20       1.28331      .   S
    O91    Cd3       2.27966      .   S
    O91    C42       1.28613      .   S
    O100   C47       1.26296      .   S
    C47    O101      1.28920  1_655   S
    Cd1    O101      2.35729      .   S
    O24    Cd15      2.42516      .   S
    O28    Cd0       2.45575      .   S
    O53    Cd5       2.39077  1_655   S
    O54    Cd2       2.26961      .   S
    O57    Cd2       2.34301      .   S
    O64    Cd3       2.42702  1_554   S
    O68    Cd4       2.45603      .   S
    O69    Cd1       2.38933  1_654   S
    O70    Cd6       2.26859      .   S
    O73    Cd6       2.34302      .   S
    O80    Cd7       2.42574      .   S
    O84    Cd8       2.45498      .   S
    O85    Cd13      2.39125  1_455   S
    O86    Cd10      2.26981      .   S
    O89    Cd10      2.34352      .   S
    O96    Cd11      2.42692  1_556   S
    O100   Cd12      2.45637      .   S
    O101   Cd9       2.38910  1_456   S
    O102   Cd14      2.26857      .   S
    O105   Cd14      2.34271      .   S
    Cd2    Ts112     0.84801      .   S
    Cd2    Ts113     0.79359      .   S
    Cd3    Ts114     0.78479      .   S
    Cd6    Ts115     0.84739      .   S
    Cd6    Ts116     0.79399      .   S
    Cd7    Ts117     0.78519      .   S
    Cd10   Ts118     0.84812      .   S
    Cd10   Ts119     0.79366      .   S
    Cd11   Ts120     0.78479      .   S
    Cd14   Ts121     0.84743      .   S
    Cd14   Ts122     0.79396      .   S
    Cd15   Ts123     0.78502      .   S
    C16    Og124     0.49974      .   S
    C17    Og125     0.50190      .   S
    C18    Og126     0.50641      .   S
    C19    Og127     0.50884      .   S
    C20    Og128     0.49361      .   S
    C21    Og129     0.50257      .   S
    C22    Og130     0.50638      .   S
    C23    Og131     0.51644      .   S
    C29    Og132     0.49975      .   S
    C30    Og133     0.50142      .   S
    C31    Og134     0.50637      .   S
    C32    Og135     0.50896      .   S
    C33    Og136     0.49365      .   S
    C34    Og137     0.50264      .   S
    C35    Og138     0.50637      .   S
    C36    Og139     0.51643      .   S
    C37    Og140     0.49998      .   S
    C38    Og141     0.50138      .   S
    C39    Og142     0.50646      .   S
    C40    Og143     0.48900      .   S
    C41    Og144     0.49362      .   S
    C42    Og145     0.50261      .   S
    C43    Og146     0.50647      .   S
    C44    Og147     0.48993      .   S
    C45    Og148     0.49976      .   S
    C46    Og149     0.50135      .   S
    C47    Og150     0.50638      .   S
    C48    Og151     0.48884      .   S
    C49    Og152     0.49364      .   S
    C50    Og153     0.50256      .   S
    C51    Og154     0.50636      .   S
    C52    Og155     0.51639      .   S
