# CIF file generated by openbabel 2.4.90, see http://openbabel.sf.net
data_I
_chemical_name_common ''
_cell_length_a 14.132
_cell_length_b 18.093
_cell_length_c 19.553
_cell_angle_alpha 98.827
_cell_angle_beta 90.064
_cell_angle_gamma 90.027
_space_group_name_H-M_alt 'P 1'
_space_group_name_Hall 'P 1'
loop_
    _symmetry_equiv_pos_as_xyz
    x,y,z
loop_
    _atom_site_label
    _atom_site_type_symbol
    _atom_site_fract_x
    _atom_site_fract_y
    _atom_site_fract_z
    _atom_site_occupancy
    Cd0     Cd   0.19300   0.66485   0.35020   1.000
    Cd1     Cd   0.12604   0.47632   0.98006   1.000
    Cd2     Cd   0.26448   0.60045   0.16113   1.000
    Cd3     Cd   0.20845   0.18357   0.96324   1.000
    Cd4     Cd   0.19312   0.33511   0.14973   1.000
    Cd5     Cd   0.12623   0.52380   0.51994   1.000
    Cd6     Cd   0.26419   0.39954   0.33889   1.000
    Cd7     Cd   0.79114   0.18364   0.46290   1.000
    Cd8     Cd   0.80702   0.33510   0.64965   1.000
    Cd9     Cd   0.87399   0.52373   0.02000   1.000
    Cd10    Cd   0.73556   0.39960   0.83886   1.000
    Cd11    Cd   0.79158   0.81645   0.03671   1.000
    Cd12    Cd   0.80696   0.66488   0.85020   1.000
    Cd13    Cd   0.87380   0.47630   0.48010   1.000
    Cd14    Cd   0.73578   0.60052   0.66114   1.000
    Cd15    Cd   0.20884   0.81634   0.53697   1.000
