# CIF file generated by openbabel 2.4.90, see http://openbabel.sf.net
data_I
_chemical_name_common ''
_cell_length_a 14.132
_cell_length_b 18.093
_cell_length_c 19.553
_cell_angle_alpha 98.827
_cell_angle_beta 90.064
_cell_angle_gamma 90.027
_space_group_name_H-M_alt 'P 1'
_space_group_name_Hall 'P 1'
loop_
    _symmetry_equiv_pos_as_xyz
    x,y,z
loop_
    _atom_site_label
    _atom_site_type_symbol
    _atom_site_fract_x
    _atom_site_fract_y
    _atom_site_fract_z
    _atom_site_occupancy
    C0      C    0.07198   0.80705   0.42149   1.000
    C1      C    0.89994   0.80850   0.15230   1.000
    C2      C    0.02136   0.61100   0.44527   1.000
    C3      C    0.06492   0.59419   0.22465   1.000
    C4      C    0.28706   0.55484   0.99280   1.000
    C5      C    0.61665   0.74701   0.02110   1.000
    C6      C    0.32933   0.43585   0.11822   1.000
    C7      C    0.45328   0.62028   0.23739   1.000
    C8      C    0.07201   0.19265   0.07872   1.000
    C9      C    0.89848   0.19191   0.34718   1.000
    C10     C    0.02131   0.38882   0.05440   1.000
    C11     C    0.06479   0.40576   0.27496   1.000
    C12     C    0.28705   0.44519   0.50718   1.000
    C13     C    0.61636   0.25303   0.47891   1.000
    C14     C    0.32932   0.56417   0.38168   1.000
    C15     C    0.45279   0.37968   0.26265   1.000
    C16     C    0.92805   0.19287   0.57840   1.000
    C17     C    0.10008   0.19151   0.84757   1.000
    C18     C    0.97867   0.38901   0.55468   1.000
    C19     C    0.93506   0.40580   0.77526   1.000
    C20     C    0.71295   0.44525   0.00720   1.000
    C21     C    0.38340   0.25302   0.97888   1.000
    C22     C    0.67067   0.56419   0.88170   1.000
    C23     C    0.54675   0.37974   0.76260   1.000
    C24     C    0.92804   0.80734   0.92125   1.000
    C25     C    0.10156   0.80806   0.65279   1.000
    C26     C    0.97872   0.61119   0.94559   1.000
    C27     C    0.93525   0.59424   0.72500   1.000
    C28     C    0.71299   0.55491   0.49280   1.000
    C29     C    0.38363   0.74699   0.52106   1.000
    C30     C    0.67072   0.43587   0.61827   1.000
    C31     C    0.54714   0.62030   0.73731   1.000
