# CIF file generated by openbabel 2.4.90, see http://openbabel.sf.net
data_I
_chemical_name_common ''
_cell_length_a 14.132
_cell_length_b 18.093
_cell_length_c 19.553
_cell_angle_alpha 98.827
_cell_angle_beta 90.064
_cell_angle_gamma 90.027
_space_group_name_H-M_alt 'P 1'
_space_group_name_Hall 'P 1'
loop_
    _symmetry_equiv_pos_as_xyz
    x,y,z
loop_
    _atom_site_label
    _atom_site_type_symbol
    _atom_site_fract_x
    _atom_site_fract_y
    _atom_site_fract_z
    _atom_site_occupancy
    Zr0     Zr   0.20884   0.81634   0.53697   1.000
    Zr1     Zr   0.19300   0.66485   0.35020   1.000
    Zr2     Zr   0.12604   0.47632   0.98006   1.000
    Zr3     Zr   0.26448   0.60045   0.16113   1.000
    Zr4     Zr   0.20845   0.18357   0.96324   1.000
    Zr5     Zr   0.19312   0.33511   0.14973   1.000
    Zr6     Zr   0.12623   0.52380   0.51994   1.000
    Zr7     Zr   0.26419   0.39954   0.33889   1.000
    Zr8     Zr   0.79114   0.18364   0.46290   1.000
    Zr9     Zr   0.80702   0.33510   0.64965   1.000
    Zr10    Zr   0.87399   0.52373   0.02000   1.000
    Zr11    Zr   0.73556   0.39960   0.83886   1.000
    Zr12    Zr   0.79158   0.81645   0.03671   1.000
    Zr13    Zr   0.80696   0.66488   0.85020   1.000
    Zr14    Zr   0.87380   0.47630   0.48010   1.000
    Zr15    Zr   0.73578   0.60052   0.66114   1.000
    Zr16    Zr   0.07198   0.80705   0.42149   1.000
    Zr17    Zr   0.89994   0.80850   0.15230   1.000
    Zr18    Zr   0.02136   0.61100   0.44527   1.000
    Zr19    Zr   0.06492   0.59419   0.22465   1.000
    Zr20    Zr   0.28706   0.55484   0.99280   1.000
    Zr21    Zr   0.61665   0.74701   0.02110   1.000
    Zr22    Zr   0.32933   0.43585   0.11822   1.000
    Zr23    Zr   0.45328   0.62028   0.23739   1.000
    Zr24    Zr   0.07201   0.19265   0.07872   1.000
    Zr25    Zr   0.89848   0.19191   0.34718   1.000
    Zr26    Zr   0.02131   0.38882   0.05440   1.000
    Zr27    Zr   0.06479   0.40576   0.27496   1.000
    Zr28    Zr   0.28705   0.44519   0.50718   1.000
    Zr29    Zr   0.61636   0.25303   0.47891   1.000
    Zr30    Zr   0.32932   0.56417   0.38168   1.000
    Zr31    Zr   0.45279   0.37968   0.26265   1.000
    Zr32    Zr   0.92805   0.19287   0.57840   1.000
    Zr33    Zr   0.10008   0.19151   0.84757   1.000
    Zr34    Zr   0.97867   0.38901   0.55468   1.000
    Zr35    Zr   0.93506   0.40580   0.77526   1.000
    Zr36    Zr   0.71295   0.44525   0.00720   1.000
    Zr37    Zr   0.38340   0.25302   0.97888   1.000
    Zr38    Zr   0.67067   0.56419   0.88170   1.000
    Zr39    Zr   0.54675   0.37974   0.76260   1.000
    Zr40    Zr   0.92804   0.80734   0.92125   1.000
    Zr41    Zr   0.10156   0.80806   0.65279   1.000
    Zr42    Zr   0.97872   0.61119   0.94559   1.000
    Zr43    Zr   0.93525   0.59424   0.72500   1.000
    Zr44    Zr   0.71299   0.55491   0.49280   1.000
    Zr45    Zr   0.38363   0.74699   0.52106   1.000
    Zr46    Zr   0.67072   0.43587   0.61827   1.000
    Zr47    Zr   0.54714   0.62030   0.73731   1.000
    Zr48    Zr   0.15194   0.77086   0.42108   1.000
    Zr49    Zr   0.04123   0.84619   0.47491   1.000
    Zr50    Zr   0.86005   0.86897   0.14099   1.000
    Zr51    Zr   0.90488   0.74939   0.10819   1.000
    Zr52    Zr   0.11017   0.60676   0.43870   1.000
    Zr53    Zr   0.98007   0.57792   0.49097   1.000
    Zr54    Zr   0.14704   0.62506   0.24042   1.000
    Zr55    Zr   0.04500   0.55953   0.16650   1.000
    Zr56    Zr   0.25506   0.52773   0.93272   1.000
    Zr57    Zr   0.23830   0.54472   0.04640   1.000
    Zr58    Zr   0.62129   0.79993   0.98607   1.000
    Zr59    Zr   0.68323   0.73089   0.06120   1.000
    Zr60    Zr   0.27588   0.47120   0.16420   1.000
    Zr61    Zr   0.32041   0.36614   0.09629   1.000
    Zr62    Zr   0.37162   0.65302   0.23635   1.000
    Zr63    Zr   0.50990   0.62834   0.28645   1.000
    Zr64    Zr   0.15208   0.22880   0.07932   1.000
    Zr65    Zr   0.04127   0.15351   0.02523   1.000
    Zr66    Zr   0.86002   0.13103   0.35897   1.000
    Zr67    Zr   0.90177   0.25149   0.39091   1.000
    Zr68    Zr   0.11013   0.39309   0.06112   1.000
    Zr69    Zr   0.98001   0.42203   0.00875   1.000
    Zr70    Zr   0.14688   0.37489   0.25935   1.000
    Zr71    Zr   0.04493   0.44039   0.33304   1.000
    Zr72    Zr   0.25516   0.47222   0.56725   1.000
    Zr73    Zr   0.23827   0.45544   0.45355   1.000
    Zr74    Zr   0.62119   0.20009   0.51392   1.000
    Zr75    Zr   0.68276   0.26919   0.43877   1.000
    Zr76    Zr   0.27578   0.52880   0.33561   1.000
    Zr77    Zr   0.32050   0.63389   0.40359   1.000
    Zr78    Zr   0.37105   0.34697   0.26362   1.000
    Zr79    Zr   0.50939   0.37157   0.21367   1.000
    Zr80    Zr   0.84811   0.22910   0.57881   1.000
    Zr81    Zr   0.95880   0.15369   0.52505   1.000
    Zr82    Zr   0.13998   0.13104   0.85897   1.000
    Zr83    Zr   0.09514   0.25062   0.89176   1.000
    Zr84    Zr   0.88985   0.39326   0.56125   1.000
    Zr85    Zr   0.01999   0.42212   0.50902   1.000
    Zr86    Zr   0.85293   0.37494   0.75950   1.000
    Zr87    Zr   0.95500   0.44045   0.83336   1.000
    Zr88    Zr   0.74498   0.47228   0.06729   1.000
    Zr89    Zr   0.76166   0.45547   0.95359   1.000
    Zr90    Zr   0.37875   0.20010   0.01391   1.000
    Zr91    Zr   0.31682   0.26913   0.93877   1.000
    Zr92    Zr   0.72412   0.52884   0.83570   1.000
    Zr93    Zr   0.67960   0.63391   0.90365   1.000
    Zr94    Zr   0.62841   0.34701   0.76365   1.000
    Zr95    Zr   0.49014   0.37166   0.71353   1.000
    Zr96    Zr   0.84796   0.77121   0.92064   1.000
    Zr97    Zr   0.95877   0.84649   0.97474   1.000
    Zr98    Zr   0.13999   0.86895   0.64098   1.000
    Zr99    Zr   0.09827   0.74848   0.60907   1.000
    Zr100   Zr   0.88990   0.60693   0.93887   1.000
    Zr101   Zr   0.02001   0.57799   0.99125   1.000
    Zr102   Zr   0.85317   0.62511   0.74062   1.000
    Zr103   Zr   0.95511   0.55961   0.66690   1.000
    Zr104   Zr   0.74485   0.52779   0.43277   1.000
    Zr105   Zr   0.76182   0.54479   0.54646   1.000
    Zr106   Zr   0.37882   0.79994   0.48600   1.000
    Zr107   Zr   0.31724   0.73082   0.56119   1.000
    Zr108   Zr   0.72427   0.47124   0.66433   1.000
    Zr109   Zr   0.67954   0.36615   0.59636   1.000
    Zr110   Zr   0.62887   0.65303   0.73637   1.000
    Zr111   Zr   0.49052   0.62839   0.78628   1.000
    O112    O    0.72897   0.45876   0.03725   1.000
    O113    O    0.73730   0.45036   0.98040   1.000
    O114    O    0.92700   0.47288   0.01438   1.000
    O115    O    0.00066   0.40542   0.03158   1.000
    O116    O    0.38107   0.22656   0.99640   1.000
    O117    O    0.80949   0.49801   0.04365   1.000
    O118    O    0.88195   0.56533   0.97944   1.000
    O119    O    0.81782   0.48960   0.98680   1.000
    O120    O    0.64994   0.73895   0.04115   1.000
    O121    O    0.61897   0.77347   0.00359   1.000
    O122    O    0.05664   0.17308   0.05198   1.000
    O123    O    0.73740   0.77367   0.04896   1.000
    O124    O    0.82582   0.84271   0.08885   1.000
    O125    O    0.18217   0.51052   0.01323   1.000
    O126    O    0.26268   0.54978   0.01960   1.000
    O127    O    0.06572   0.39095   0.05776   1.000
    O128    O    0.11809   0.43471   0.02059   1.000
    O129    O    0.11205   0.21072   0.07902   1.000
    O130    O    0.17260   0.28195   0.11453   1.000
    O131    O    0.32487   0.40099   0.10726   1.000
    O132    O    0.25676   0.35062   0.12301   1.000
    O133    O    0.90241   0.77895   0.13025   1.000
    O134    O    0.30261   0.45352   0.14121   1.000
    O135    O    0.88000   0.83873   0.14665   1.000
    O136    O    0.17000   0.35500   0.20454   1.000
    O137    O    0.27018   0.53582   0.16267   1.000
    O138    O    0.31805   0.62674   0.19874   1.000
    O139    O    0.05496   0.57686   0.19558   1.000
    O140    O    0.48109   0.37563   0.23816   1.000
    O141    O    0.10598   0.60962   0.23253   1.000
    O142    O    0.41245   0.63665   0.23687   1.000
    O143    O    0.48159   0.62431   0.26192   1.000
    O144    O    0.17002   0.64496   0.29531   1.000
    O145    O    0.10584   0.39032   0.26716   1.000
    O146    O    0.41192   0.36333   0.26314   1.000
    O147    O    0.31762   0.37325   0.30126   1.000
    O148    O    0.05486   0.42307   0.30400   1.000
    O149    O    0.26999   0.46417   0.33725   1.000
    O150    O    0.30255   0.54648   0.35865   1.000
    O151    O    0.87925   0.16147   0.35308   1.000
    O152    O    0.90013   0.22170   0.36905   1.000
    O153    O    0.25675   0.64937   0.37690   1.000
    O154    O    0.17247   0.71785   0.38564   1.000
    O155    O    0.82558   0.15733   0.41094   1.000
    O156    O    0.32491   0.59903   0.39264   1.000
    O157    O    0.84646   0.21756   0.42691   1.000
    O158    O    0.11196   0.78896   0.42129   1.000
    O159    O    0.05660   0.82662   0.44820   1.000
    O160    O    0.80932   0.50205   0.45644   1.000
    O161    O    0.72892   0.54135   0.46279   1.000
    O162    O    0.06576   0.60888   0.44199   1.000
    O163    O    0.11820   0.56528   0.47932   1.000
    O164    O    0.73695   0.22642   0.45084   1.000
    O165    O    0.64956   0.26111   0.45884   1.000
    O166    O    0.00071   0.59446   0.46812   1.000
    O167    O    0.26266   0.45032   0.48037   1.000
    O168    O    0.18225   0.48962   0.48675   1.000
    O169    O    0.61877   0.22656   0.49642   1.000
    O170    O    0.92693   0.52711   0.48554   1.000
    O171    O    0.81781   0.51055   0.51328   1.000
    O172    O    0.88183   0.43478   0.52068   1.000
    O173    O    0.38122   0.77346   0.50353   1.000
    O174    O    0.73740   0.54985   0.51963   1.000
    O175    O    0.27110   0.45870   0.53722   1.000
    O176    O    0.07311   0.47296   0.51448   1.000
    O177    O    0.99933   0.40557   0.53185   1.000
    O178    O    0.19069   0.49801   0.54360   1.000
    O179    O    0.35043   0.73891   0.54113   1.000
    O180    O    0.94342   0.17328   0.55173   1.000
    O181    O    0.26304   0.77358   0.54908   1.000
    O182    O    0.15355   0.78241   0.57302   1.000
    O183    O    0.17442   0.84264   0.58898   1.000
    O184    O    0.93426   0.39114   0.55797   1.000
    O185    O    0.88808   0.21098   0.57861   1.000
    O186    O    0.82756   0.28210   0.61423   1.000
    O187    O    0.67513   0.40101   0.60732   1.000
    O188    O    0.74328   0.35062   0.62301   1.000
    O189    O    0.09991   0.77827   0.63093   1.000
    O190    O    0.69749   0.45356   0.64130   1.000
    O191    O    0.12077   0.83851   0.64689   1.000
    O192    O    0.82998   0.35502   0.70458   1.000
    O193    O    0.73002   0.53588   0.66274   1.000
    O194    O    0.68233   0.62677   0.69876   1.000
    O195    O    0.94518   0.57692   0.69595   1.000
    O196    O    0.51844   0.37570   0.73807   1.000
    O197    O    0.89421   0.60967   0.73281   1.000
    O198    O    0.58800   0.63667   0.73684   1.000
    O199    O    0.51883   0.62435   0.76180   1.000
    O200    O    0.83006   0.64500   0.79541   1.000
    O201    O    0.89400   0.39037   0.76738   1.000
    O202    O    0.58758   0.36338   0.76313   1.000
    O203    O    0.68199   0.37331   0.80126   1.000
    O204    O    0.94503   0.42312   0.80431   1.000
    O205    O    0.72984   0.46422   0.83728   1.000
    O206    O    0.69739   0.54652   0.85870   1.000
    O207    O    0.12003   0.16128   0.85327   1.000
    O208    O    0.09761   0.22106   0.86967   1.000
    O209    O    0.74328   0.64939   0.87693   1.000
    O210    O    0.82746   0.71804   0.88542   1.000
    O211    O    0.17422   0.15731   0.91111   1.000
    O212    O    0.67513   0.59905   0.89268   1.000
    O213    O    0.88800   0.78927   0.92095   1.000
    O214    O    0.94340   0.82691   0.94800   1.000
    O215    O    0.19055   0.50203   0.95639   1.000
    O216    O    0.27106   0.54129   0.96276   1.000
    O217    O    0.26264   0.22635   0.95101   1.000
    O218    O    0.35011   0.26107   0.95883   1.000
    O219    O    0.93431   0.60906   0.94223   1.000
    O220    O    0.99936   0.59459   0.96842   1.000
    O221    O    0.07303   0.52716   0.98566   1.000
    O222    O    0.18039   0.79360   0.47903   1.000
    O223    O    0.15158   0.63581   0.39445   1.000
    O224    O    0.05315   0.55086   0.50545   1.000
    O225    O    0.20576   0.61276   0.20078   1.000
    O226    O    0.25139   0.57259   0.10376   1.000
    O227    O    0.18027   0.20618   0.02128   1.000
    O228    O    0.15162   0.36410   0.10543   1.000
    O229    O    0.05302   0.44918   0.99441   1.000
    O230    O    0.20553   0.38721   0.29912   1.000
    O231    O    0.25123   0.42749   0.39622   1.000
    O232    O    0.81962   0.20637   0.52086   1.000
    O233    O    0.84844   0.36418   0.60545   1.000
    O234    O    0.94689   0.44921   0.49456   1.000
    O235    O    0.79425   0.38727   0.79918   1.000
    O236    O    0.74861   0.42754   0.89623   1.000
    O237    O    0.81977   0.79383   0.97868   1.000
    O238    O    0.84843   0.63590   0.89454   1.000
    O239    O    0.94700   0.55086   0.00562   1.000
    O240    O    0.79448   0.61281   0.70088   1.000
    O241    O    0.74880   0.57265   0.60380   1.000
    N242    N    0.54042   0.40685   0.94768   1.000
    O243    O    0.48361   0.34219   0.96464   1.000
    O244    O    0.59824   0.41497   0.90573   1.000
    O245    O    0.60448   0.41507   0.97521   1.000
    O246    O    0.58550   0.47614   0.92305   1.000
    O247    O    0.53587   0.40755   0.86949   1.000
    N248    N    0.45960   0.59319   0.05190   1.000
    O249    O    0.46415   0.59248   0.12879   1.000
    O250    O    0.40178   0.58507   0.09405   1.000
    O251    O    0.51642   0.65784   0.03513   1.000
    O252    O    0.39554   0.58499   0.02458   1.000
    O253    O    0.41451   0.52390   0.07671   1.000
    N254    N    0.96917   0.26291   0.18833   1.000
    O255    O    0.00753   0.22856   0.15029   1.000
    O256    O    0.94420   0.22738   0.25005   1.000
    O257    O    0.98050   0.31436   0.13210   1.000
    O258    O    0.99913   0.33288   0.21683   1.000
    N259    N    0.45943   0.40681   0.44809   1.000
    O260    O    0.51620   0.34216   0.46477   1.000
    O261    O    0.39542   0.41502   0.47541   1.000
    O262    O    0.41441   0.47611   0.42326   1.000
    O263    O    0.46385   0.40751   0.37122   1.000
    O264    O    0.40156   0.41493   0.40595   1.000
    N265    N    0.22738   0.10883   0.44038   1.000
    O266    O    0.22195   0.99254   0.48074   1.000
    O267    O    0.23854   0.22492   0.39905   1.000
    N268    N    0.96951   0.73700   0.31135   1.000
    O269    O    0.94501   0.77273   0.24959   1.000
    O270    O    0.99934   0.66704   0.28276   1.000
    O271    O    0.00773   0.77128   0.34962   1.000
    O272    O    0.98069   0.68546   0.36752   1.000
    N273    N    0.77237   0.10894   0.94031   1.000
    O274    O    0.76119   0.22503   0.89902   1.000
    O275    O    0.77803   0.99264   0.98059   1.000
    N276    N    0.22765   0.89059   0.05965   1.000
    O277    O    0.22200   0.00713   0.01936   1.000
    O278    O    0.23884   0.77476   0.10097   1.000
    N279    N    0.02997   0.73707   0.81164   1.000
    O280    O    0.99880   0.66710   0.78313   1.000
    O281    O    0.01909   0.68562   0.86788   1.000
    O282    O    0.99206   0.77142   0.84968   1.000
    O283    O    0.05539   0.77259   0.74992   1.000
    N284    N    0.02961   0.26296   0.68827   1.000
    O285    O    0.01888   0.31452   0.63226   1.000
    O286    O    0.05456   0.22725   0.75018   1.000
    O287    O    0.99184   0.22867   0.65015   1.000
    O288    O    0.99857   0.33293   0.71700   1.000
    N289    N    0.77261   0.89066   0.55957   1.000
    O290    O    0.76145   0.77485   0.60094   1.000
    O291    O    0.77804   0.00719   0.51918   1.000
    N292    N    0.54057   0.59321   0.55184   1.000
    O293    O    0.48379   0.65785   0.53508   1.000
    O294    O    0.53612   0.59250   0.62872   1.000
    O295    O    0.60458   0.58503   0.52454   1.000
    O296    O    0.59843   0.58510   0.59401   1.000
    O297    O    0.58561   0.52392   0.57668   1.000
loop_
    _geom_bond_atom_site_label_1
    _geom_bond_atom_site_label_2
    _geom_bond_distance
    _geom_bond_site_symmetry_2
    _ccdc_geom_bond_type
    Zr36   O112      0.64165      .   S
    Zr88   O112      0.64165      .   S
    Zr36   O113      0.64572  1_554   S
    Zr89   O113      0.64572      .   S
    Zr69   O114      1.17879      .   S
    Zr10   O114      1.17879      .   S
    Zr69   O115      0.64465  1_655   S
    Zr26   O115      0.64465      .   S
    Zr90   O116      0.63078  1_554   S
    Zr37   O116      0.63078      .   S
    Zr10   O117      1.15239      .   S
    Zr88   O117      1.15239      .   S
    Zr10   O118      1.17962  1_554   S
    Zr100  O118      1.17962      .   S
    Zr10   O119      1.14380  1_554   S
    Zr89   O119      1.14380      .   S
    Zr21   O120      0.64301      .   S
    Zr59   O120      0.64301      .   S
    Zr21   O121      0.63080      .   S
    Zr58   O121      0.63080  1_556   S
    Zr65   O122      0.62363      .   S
    Zr24   O122      0.62363      .   S
    Zr12   O123      1.13987      .   S
    Zr59   O123      1.13987      .   S
    Zr12   O124      1.16156      .   S
    Zr50   O124      1.16156      .   S
    Zr57   O125      1.14365      .   S
    Zr2    O125      1.14365  1_556   S
    Zr57   O126      0.64557      .   S
    Zr20   O126      0.64557  1_556   S
    Zr26   O127      0.63150      .   S
    Zr68   O127      0.63150      .   S
    Zr68   O128      1.17937      .   S
    Zr2    O128      1.17937  1_556   S
    Zr24   O129      0.65290      .   S
    Zr64   O129      0.65290      .   S
    Zr64   O130      1.13094      .   S
    Zr5    O130      1.13094      .   S
    Zr61   O131      0.63732      .   S
    Zr22   O131      0.63732      .   S
    Zr61   O132      1.09845      .   S
    Zr5    O132      1.09845      .   S
    Zr51   O133      0.63434      .   S
    Zr17   O133      0.63434      .   S
    Zr22   O134      0.63507      .   S
    Zr60   O134      0.63507      .   S
    Zr50   O135      0.63999      .   S
    Zr17   O135      0.63999      .   S
    Zr5    O136      1.12575      .   S
    Zr70   O136      1.12575      .   S
    Zr3    O137      1.17710      .   S
    Zr60   O137      1.17710      .   S
    Zr3    O138      1.10956      .   S
    Zr62   O138      1.10956      .   S
    Zr55   O139      0.62160      .   S
    Zr19   O139      0.62160      .   S
    Zr79   O140      0.61990      .   S
    Zr31   O140      0.61990      .   S
    Zr19   O141      0.65186      .   S
    Zr54   O141      0.65186      .   S
    Zr62   O142      0.64953      .   S
    Zr23   O142      0.64953      .   S
    Zr23   O143      0.61987      .   S
    Zr63   O143      0.61987      .   S
    Zr54   O144      1.12581      .   S
    Zr1    O144      1.12581      .   S
    Zr70   O145      0.65191      .   S
    Zr27   O145      0.65191      .   S
    Zr31   O146      0.64961      .   S
    Zr78   O146      0.64961      .   S
    Zr78   O147      1.10996      .   S
    Zr7    O147      1.10996      .   S
    Zr27   O148      0.62120      .   S
    Zr71   O148      0.62120      .   S
    Zr76   O149      1.17754      .   S
    Zr7    O149      1.17754      .   S
    Zr76   O150      0.63530      .   S
    Zr30   O150      0.63530      .   S
    Zr25   O151      0.64026      .   S
    Zr66   O151      0.64026      .   S
    Zr25   O152      0.63486      .   S
    Zr67   O152      0.63486      .   S
    Zr1    O153      1.09850      .   S
    Zr77   O153      1.09850      .   S
    Zr1    O154      1.13168      .   S
    Zr48   O154      1.13168      .   S
    Zr66   O155      1.16135      .   S
    Zr8    O155      1.16135      .   S
    Zr30   O156      0.63734      .   S
    Zr77   O156      0.63734      .   S
    Zr67   O157      1.27141      .   S
    Zr8    O157      1.27141      .   S
    Zr48   O158      0.65290      .   S
    Zr16   O158      0.65290      .   S
    Zr16   O159      0.62361      .   S
    Zr49   O159      0.62361      .   S
    Zr104  O160      1.15194      .   S
    Zr14   O160      1.15194      .   S
    Zr104  O161      0.64144      .   S
    Zr44   O161      0.64144      .   S
    Zr52   O162      0.63150      .   S
    Zr18   O162      0.63150      .   S
    Zr52   O163      1.17891      .   S
    Zr6    O163      1.17891      .   S
    Zr75   O164      1.13898      .   S
    Zr8    O164      1.13898      .   S
    Zr75   O165      0.64297      .   S
    Zr29   O165      0.64297      .   S
    Zr18   O166      0.64461      .   S
    Zr53   O166      0.64461  1_655   S
    Zr73   O167      0.64564      .   S
    Zr28   O167      0.64564      .   S
    Zr73   O168      1.14407      .   S
    Zr6    O168      1.14407      .   S
    Zr29   O169      0.63085      .   S
    Zr74   O169      0.63085      .   S
    Zr14   O170      1.17870      .   S
    Zr53   O170      1.17870      .   S
    Zr14   O171      1.14417      .   S
    Zr105  O171      1.14417      .   S
    Zr14   O172      1.17873      .   S
    Zr84   O172      1.17873      .   S
    Zr106  O173      0.63123      .   S
    Zr45   O173      0.63123      .   S
    Zr44   O174      0.64577      .   S
    Zr105  O174      0.64577      .   S
    Zr28   O175      0.64165      .   S
    Zr72   O175      0.64165      .   S
    Zr85   O176      1.17899      .   S
    Zr6    O176      1.17899      .   S
    Zr85   O177      0.64455  1_455   S
    Zr34   O177      0.64455      .   S
    Zr6    O178      1.15211      .   S
    Zr72   O178      1.15211      .   S
    Zr45   O179      0.64294      .   S
    Zr107  O179      0.64294      .   S
    Zr81   O180      0.62326      .   S
    Zr32   O180      0.62326      .   S
    Zr0    O181      1.13911      .   S
    Zr107  O181      1.13911      .   S
    Zr0    O182      1.27190      .   S
    Zr99   O182      1.27190      .   S
    Zr0    O183      1.16188      .   S
    Zr98   O183      1.16188      .   S
    Zr34   O184      0.63154      .   S
    Zr84   O184      0.63154      .   S
    Zr32   O185      0.65291      .   S
    Zr80   O185      0.65291      .   S
    Zr80   O186      1.13153      .   S
    Zr9    O186      1.13153      .   S
    Zr109  O187      0.63736      .   S
    Zr46   O187      0.63736      .   S
    Zr109  O188      1.09813      .   S
    Zr9    O188      1.09813      .   S
    Zr99   O189      0.63486      .   S
    Zr41   O189      0.63486      .   S
    Zr46   O190      0.63528      .   S
    Zr108  O190      0.63528      .   S
    Zr98   O191      0.64028      .   S
    Zr41   O191      0.64028      .   S
    Zr9    O192      1.12641      .   S
    Zr86   O192      1.12641      .   S
    Zr15   O193      1.17745      .   S
    Zr108  O193      1.17745      .   S
    Zr15   O194      1.10982      .   S
    Zr110  O194      1.10982      .   S
    Zr103  O195      0.62134      .   S
    Zr43   O195      0.62134      .   S
    Zr95   O196      0.61988      .   S
    Zr39   O196      0.61988      .   S
    Zr43   O197      0.65192      .   S
    Zr102  O197      0.65192      .   S
    Zr110  O198      0.64960      .   S
    Zr47   O198      0.64960      .   S
    Zr47   O199      0.61992      .   S
    Zr111  O199      0.61992      .   S
    Zr102  O200      1.12533      .   S
    Zr13   O200      1.12533      .   S
    Zr86   O201      0.65185      .   S
    Zr35   O201      0.65185      .   S
    Zr39   O202      0.64952      .   S
    Zr94   O202      0.64952      .   S
    Zr94   O203      1.10963      .   S
    Zr11   O203      1.10963      .   S
    Zr35   O204      0.62120      .   S
    Zr87   O204      0.62120      .   S
    Zr92   O205      1.17709      .   S
    Zr11   O205      1.17709      .   S
    Zr92   O206      0.63524      .   S
    Zr38   O206      0.63524      .   S
    Zr33   O207      0.64025      .   S
    Zr82   O207      0.64025      .   S
    Zr33   O208      0.63478      .   S
    Zr83   O208      0.63478      .   S
    Zr13   O209      1.09871      .   S
    Zr93   O209      1.09871      .   S
    Zr13   O210      1.13110      .   S
    Zr96   O210      1.13110      .   S
    Zr82   O211      1.16149      .   S
    Zr4    O211      1.16149      .   S
    Zr38   O212      0.63736      .   S
    Zr93   O212      0.63736      .   S
    Zr96   O213      0.65290      .   S
    Zr40   O213      0.65290      .   S
    Zr40   O214      0.62361      .   S
    Zr97   O214      0.62361      .   S
    Zr56   O215      1.15244      .   S
    Zr2    O215      1.15244      .   S
    Zr56   O216      0.64166      .   S
    Zr20   O216      0.64166      .   S
    Zr91   O217      1.13983      .   S
    Zr4    O217      1.13983      .   S
    Zr91   O218      0.64306      .   S
    Zr37   O218      0.64306      .   S
    Zr100  O219      0.63148      .   S
    Zr42   O219      0.63148      .   S
    Zr42   O220      0.64460      .   S
    Zr101  O220      0.64460  1_455   S
    Zr2    O221      1.17864      .   S
    Zr101  O221      1.17864      .   S
    Zr48   O222      1.21258      .   S
    Zr0    O222      1.21258      .   S
    Zr52   O223      1.22787      .   S
    Zr1    O223      1.22787      .   S
    Zr53   O224      1.19539  1_655   S
    Zr6    O224      1.19539      .   S
    Zr54   O225      1.13480      .   S
    Zr3    O225      1.13480      .   S
    Zr57   O226      1.17151      .   S
    Zr3    O226      1.17151      .   S
    Zr64   O227      1.21351      .   S
    Zr4    O227      1.21351  1_556   S
    Zr68   O228      1.22802      .   S
    Zr5    O228      1.22802      .   S
    Zr69   O229      1.19466  1_654   S
    Zr2    O229      1.19466      .   S
    Zr70   O230      1.13429      .   S
    Zr7    O230      1.13429      .   S
    Zr73   O231      1.17151      .   S
    Zr7    O231      1.17151      .   S
    Zr80   O232      1.21287      .   S
    Zr8    O232      1.21287      .   S
    Zr84   O233      1.22749      .   S
    Zr9    O233      1.22749      .   S
    Zr85   O234      1.19562  1_455   S
    Zr14   O234      1.19562      .   S
    Zr86   O235      1.13491      .   S
    Zr11   O235      1.13491      .   S
    Zr89   O236      1.17176      .   S
    Zr11   O236      1.17176      .   S
    Zr96   O237      1.21346      .   S
    Zr12   O237      1.21346  1_554   S
    Zr100  O238      1.22818      .   S
    Zr13   O238      1.22818      .   S
    Zr101  O239      1.19455  1_456   S
    Zr10   O239      1.19455      .   S
    Zr102  O240      1.13429      .   S
    Zr15   O240      1.13429      .   S
    Zr105  O241      1.17136      .   S
    Zr15   O241      1.17136      .   S
    N242   O243      1.49721      .   S
    Zr37   O243      2.19616      .   S
    N242   O244      1.18346      .   S
    Zr11   O244      2.33399      .   S
    N242   O245      1.05150      .   S
    Zr36   O245      1.71209  1_554   S
    N242   O246      1.54760      .   S
    Zr38   O246      2.24401      .   S
    N242   O247      1.53214      .   S
    Zr39   O247      2.07921      .   S
    N248   O249      1.50678      .   S
    Zr23   O249      2.11147      .   S
    N248   O250      1.18616      .   S
    Zr3    O250      2.33594      .   S
    N248   O251      1.49600      .   S
    Zr21   O251      2.19511      .   S
    N248   O252      1.04958      .   S
    Zr20   O252      1.71080  1_556   S
    N248   O253      1.54911      .   S
    Zr22   O253      2.24558      .   S
    N254   O255      1.04529  1_655   S
    Zr24   O255      1.71329      .   S
    N254   O256      1.49426      .   S
    Zr25   O256      2.19381      .   S
    N254   O257      1.55416      .   S
    Zr26   O257      2.25498  1_455   S
    N254   O258      1.36939      .   S
    Zr27   O258      1.85144  1_455   S
    N259   O260      1.49513      .   S
    Zr29   O260      2.19527      .   S
    N259   O261      1.05006      .   S
    Zr28   O261      1.71123      .   S
    N259   O262      1.54907      .   S
    Zr30   O262      2.24550      .   S
    N259   O263      1.50626      .   S
    Zr31   O263      2.11089      .   S
    N259   O264      1.18528      .   S
    Zr7    O264      2.33400      .   S
    N265   O266      2.35902  1_545   S
    Zr0    O266      3.53311      .   S
    N265   O267      2.36865      .   S
    Zr7    O267      3.55484      .   S
    N268   O269      1.49498      .   S
    Zr17   O269      2.19514      .   S
    N268   O270      1.36989      .   S
    Zr19   O270      1.85236  1_455   S
    N268   O271      1.04526  1_655   S
    Zr16   O271      1.71343      .   S
    N268   O272      1.55407      .   S
    Zr18   O272      2.25471  1_455   S
    N273   O274      2.36840      .   S
    Zr11   O274      3.55417      .   S
    N273   O275      2.35857  1_545   S
    Zr12   O275      3.53223  1_554   S
    N276   O277      2.36285  1_565   S
    Zr4    O277      3.53654  1_556   S
    N276   O278      2.36406      .   S
    Zr3    O278      3.54970      .   S
    N279   O280      1.37468  1_455   S
    Zr43   O280      1.83655      .   S
    N279   O281      1.55354      .   S
    Zr42   O281      2.25334  1_655   S
    N279   O282      1.04200  1_455   S
    Zr40   O282      1.70993      .   S
    N279   O283      1.49579      .   S
    Zr41   O283      2.19563      .   S
    N284   O285      1.55104      .   S
    Zr34   O285      2.25097  1_655   S
    N284   O286      1.49880      .   S
    Zr33   O286      2.19865      .   S
    N284   O287      1.04029  1_455   S
    Zr32   O287      1.70831      .   S
    N284   O288      1.37605  1_455   S
    Zr35   O288      1.83947      .   S
    N289   O290      2.36434      .   S
    Zr15   O290      3.55045      .   S
    N289   O291      2.36339  1_565   S
    Zr8    O291      3.53776      .   S
    N292   O293      1.49565      .   S
    Zr45   O293      2.19468      .   S
    N292   O294      1.50664      .   S
    Zr47   O294      2.11121      .   S
    N292   O295      1.04988      .   S
    Zr44   O295      1.71115      .   S
    N292   O296      1.18570      .   S
    Zr15   O296      2.33450      .   S
    N292   O297      1.54921      .   S
    Zr46   O297      2.24566      .   S
