# CIF file generated by openbabel 2.4.90, see http://openbabel.sf.net
data_I
_chemical_name_common ''
_cell_length_a 14.132
_cell_length_b 18.093
_cell_length_c 19.553
_cell_angle_alpha 98.827
_cell_angle_beta 90.064
_cell_angle_gamma 90.027
_space_group_name_H-M_alt 'P 1'
_space_group_name_Hall 'P 1'
loop_
    _symmetry_equiv_pos_as_xyz
    x,y,z
loop_
    _atom_site_label
    _atom_site_type_symbol
    _atom_site_fract_x
    _atom_site_fract_y
    _atom_site_fract_z
    _atom_site_occupancy
    Zr0     Zr   0.20884   0.81634   0.53697   1.000
    Zr1     Zr   0.19300   0.66485   0.35020   1.000
    Zr2     Zr   0.12604   0.47632   0.98006   1.000
    Zr3     Zr   0.26448   0.60045   0.16113   1.000
    Zr4     Zr   0.20845   0.18357   0.96324   1.000
    Zr5     Zr   0.19312   0.33511   0.14973   1.000
    Zr6     Zr   0.12623   0.52380   0.51994   1.000
    Zr7     Zr   0.26419   0.39954   0.33889   1.000
    Zr8     Zr   0.79114   0.18364   0.46290   1.000
    Zr9     Zr   0.80702   0.33510   0.64965   1.000
    Zr10    Zr   0.87399   0.52373   0.02000   1.000
    Zr11    Zr   0.73556   0.39960   0.83886   1.000
    Zr12    Zr   0.79158   0.81645   0.03671   1.000
    Zr13    Zr   0.80696   0.66488   0.85020   1.000
    Zr14    Zr   0.87380   0.47630   0.48010   1.000
    Zr15    Zr   0.73578   0.60052   0.66114   1.000
    N16     N    0.54042   0.40685   0.94768   1.000
    O17     O    0.59824   0.41497   0.90573   1.000
    N18     N    0.45960   0.59319   0.05190   1.000
    O19     O    0.40178   0.58507   0.09405   1.000
    N20     N    0.96917   0.26291   0.18833   1.000
    N21     N    0.45943   0.40681   0.44809   1.000
    O22     O    0.40156   0.41493   0.40595   1.000
    N23     N    0.22738   0.10883   0.44038   1.000
    O24     O    0.22195   0.99254   0.48074   1.000
    O25     O    0.23854   0.22492   0.39905   1.000
    N26     N    0.96951   0.73700   0.31135   1.000
    N27     N    0.77237   0.10894   0.94031   1.000
    O28     O    0.76119   0.22503   0.89902   1.000
    O29     O    0.77803   0.99264   0.98059   1.000
    N30     N    0.22765   0.89059   0.05965   1.000
    O31     O    0.22200   0.00713   0.01936   1.000
    O32     O    0.23884   0.77476   0.10097   1.000
    N33     N    0.02997   0.73707   0.81164   1.000
    N34     N    0.02961   0.26296   0.68827   1.000
    N35     N    0.77261   0.89066   0.55957   1.000
    O36     O    0.76145   0.77485   0.60094   1.000
    O37     O    0.77804   0.00719   0.51918   1.000
    N38     N    0.54057   0.59321   0.55184   1.000
    O39     O    0.59843   0.58510   0.59401   1.000
    C40     C    0.26014   0.54243   0.99064   1.000
    O41     O    0.22534   0.52223   0.97352   1.000
    O42     O    0.22116   0.52648   0.00194   1.000
    O43     O    0.25577   0.55751   0.04720   1.000
    O44     O    0.32784   0.56371   0.00761   1.000
    C45     C    0.96287   0.59870   0.95857   1.000
    O46     O    0.99098   0.64216   0.91322   1.000
    O47     O    0.95494   0.57478   0.98210   1.000
    O48     O    0.01795   0.56293   0.97211   1.000
    O49     O    0.92241   0.58202   0.96900   1.000
    O50     O    0.90565   0.61730   0.92655   1.000
    C51     C    0.96284   0.40147   0.54165   1.000
    O52     O    0.95487   0.42534   0.51811   1.000
    O53     O    0.01797   0.43721   0.52807   1.000
    O54     O    0.99086   0.35799   0.58695   1.000
    O55     O    0.92233   0.41812   0.53116   1.000
    O56     O    0.90564   0.38282   0.57355   1.000
    C57     C    0.64039   0.75928   0.02279   1.000
    O58     O    0.68890   0.76647   0.03587   1.000
    O59     O    0.57841   0.70856   0.02896   1.000
    C60     C    0.55510   0.36614   0.74659   1.000
    O61     O    0.54548   0.38684   0.80804   1.000
    O62     O    0.61854   0.36972   0.77392   1.000
    C63     C    0.08838   0.80803   0.43916   1.000
    O64     O    0.04806   0.78966   0.39439   1.000
    O65     O    0.13043   0.76294   0.41240   1.000
    O66     O    0.13439   0.80081   0.45909   1.000
    C67     C    0.91451   0.59299   0.71084   1.000
    O68     O    0.95665   0.63004   0.74699   1.000
    O69     O    0.87229   0.61899   0.75313   1.000
    O70     O    0.85449   0.60290   0.70586   1.000
    C71     C    0.08565   0.59293   0.21052   1.000
    O72     O    0.04250   0.62998   0.24664   1.000
    O73     O    0.12784   0.61894   0.25292   1.000
    O74     O    0.14571   0.60284   0.20565   1.000
    C75     C    0.73988   0.54250   0.49068   1.000
    O76     O    0.77885   0.52652   0.50198   1.000
    O77     O    0.74434   0.55758   0.54724   1.000
    O78     O    0.77460   0.52227   0.47356   1.000
    O79     O    0.67223   0.56376   0.50761   1.000
    C80     C    0.69146   0.57565   0.87368   1.000
    O81     O    0.63848   0.52590   0.89837   1.000
    O82     O    0.71065   0.51993   0.85548   1.000
    O83     O    0.71737   0.61252   0.87530   1.000
    C84     C    0.11327   0.80850   0.63428   1.000
    O85     O    0.14384   0.82557   0.61163   1.000
    O86     O    0.08433   0.79054   0.69210   1.000
    O87     O    0.13341   0.79545   0.60365   1.000
    C88     C    0.73986   0.45767   0.00936   1.000
    O89     O    0.77884   0.47364   0.99808   1.000
    O90     O    0.74424   0.44260   0.95279   1.000
    O91     O    0.67217   0.43637   0.99229   1.000
    O92     O    0.77468   0.47784   0.02650   1.000
    C93     C    0.35965   0.24075   0.97719   1.000
    O94     O    0.31114   0.23355   0.96410   1.000
    O95     O    0.42163   0.29147   0.97091   1.000
    C96     C    0.44494   0.63388   0.25340   1.000
    O97     O    0.38149   0.63031   0.22607   1.000
    O98     O    0.45454   0.61318   0.19110   1.000
    C99     C    0.91159   0.80835   0.93888   1.000
    O100    O    0.95183   0.78988   0.89428   1.000
    O101    O    0.86568   0.80109   0.95878   1.000
    O102    O    0.86952   0.76319   0.91215   1.000
    C103    C    0.69151   0.42442   0.62632   1.000
    O104    O    0.71739   0.38752   0.62466   1.000
    O105    O    0.63856   0.47417   0.60150   1.000
    O106    O    0.71077   0.48015   0.64453   1.000
    C107    C    0.03720   0.59856   0.45831   1.000
    O108    O    0.07770   0.58192   0.46882   1.000
    O109    O    0.09439   0.61718   0.42638   1.000
    O110    O    0.98207   0.56283   0.47192   1.000
    O111    O    0.04517   0.57471   0.48188   1.000
    O112    O    0.00894   0.64201   0.41292   1.000
    C113    C    0.88829   0.80895   0.13383   1.000
    O114    O    0.91665   0.79084   0.19171   1.000
    O115    O    0.85705   0.82583   0.11134   1.000
    C116    C    0.55551   0.63391   0.75332   1.000
    O117    O    0.54582   0.61320   0.69102   1.000
    O118    O    0.61892   0.63034   0.72604   1.000
    C119    C    0.30854   0.42439   0.12624   1.000
    O120    O    0.28936   0.48011   0.14445   1.000
    O121    O    0.28265   0.38751   0.12462   1.000
    O122    O    0.36153   0.47415   0.10147   1.000
    C123    C    0.11174   0.19106   0.86610   1.000
    O124    O    0.08315   0.20915   0.80814   1.000
    O125    O    0.14298   0.17418   0.88860   1.000
    C126    C    0.08845   0.19165   0.06109   1.000
    O127    O    0.04799   0.21010   0.10569   1.000
    O128    O    0.13053   0.23680   0.08781   1.000
    O129    O    0.13436   0.19892   0.04119   1.000
    C130    C    0.91433   0.40706   0.78937   1.000
    O131    O    0.85429   0.39717   0.79428   1.000
    O132    O    0.87215   0.38104   0.74697   1.000
    O133    O    0.95645   0.37000   0.75319   1.000
    C134    C    0.44441   0.36607   0.24665   1.000
    O135    O    0.45413   0.38679   0.30893   1.000
    O136    O    0.38101   0.36966   0.27395   1.000
    C137    C    0.30854   0.57562   0.37363   1.000
    O138    O    0.36147   0.52586   0.39844   1.000
    O139    O    0.28264   0.61249   0.37526   1.000
    O140    O    0.28926   0.51989   0.35544   1.000
    C141    C    0.88676   0.19148   0.36569   1.000
    O142    O    0.91548   0.20943   0.30787   1.000
    O143    O    0.85617   0.17440   0.38831   1.000
    O144    O    0.86661   0.20452   0.39630   1.000
    C145    C    0.08553   0.40701   0.28912   1.000
    O146    O    0.04233   0.36995   0.25297   1.000
    O147    O    0.12777   0.38100   0.24683   1.000
    O148    O    0.14553   0.39711   0.29412   1.000
    C149    C    0.64010   0.24077   0.47720   1.000
    O150    O    0.57815   0.29147   0.47099   1.000
    O151    O    0.68852   0.23359   0.46402   1.000
    C152    C    0.26016   0.45762   0.50933   1.000
    O153    O    0.25569   0.44255   0.45277   1.000
    O154    O    0.22120   0.47362   0.49804   1.000
    O155    O    0.32779   0.43632   0.49237   1.000
    O156    O    0.22543   0.47781   0.52646   1.000
    C157    C    0.91165   0.19189   0.56075   1.000
    O158    O    0.86564   0.19913   0.54080   1.000
    O159    O    0.86961   0.23699   0.58749   1.000
    O160    O    0.95175   0.21028   0.60545   1.000
    C161    C    0.03715   0.40131   0.04142   1.000
    O162    O    0.98207   0.43710   0.02790   1.000
    O163    O    0.04509   0.42524   0.01791   1.000
    O164    O    0.00882   0.35783   0.08676   1.000
    O165    O    0.07762   0.41801   0.03101   1.000
    O166    O    0.09439   0.38270   0.07342   1.000
    C167    C    0.35989   0.75925   0.52275   1.000
    O168    O    0.42184   0.70855   0.52891   1.000
    O169    O    0.31147   0.76641   0.53592   1.000
loop_
    _geom_bond_atom_site_label_1
    _geom_bond_atom_site_label_2
    _geom_bond_distance
    _geom_bond_site_symmetry_2
    _ccdc_geom_bond_type
    N16    O17       1.18346      .   S
    Zr11   O17       2.33399      .   S
    N18    O19       1.18616      .   S
    Zr3    O19       2.33594      .   S
    N21    O22       1.18528      .   S
    Zr7    O22       2.33400      .   S
    N23    O24       2.35902  1_545   S
    Zr0    O24       3.53311      .   S
    N23    O25       2.36865      .   S
    Zr7    O25       3.55484      .   S
    N27    O28       2.36840      .   S
    Zr11   O28       3.55417      .   S
    N27    O29       2.35857  1_545   S
    Zr12   O29       3.53223  1_554   S
    N30    O31       2.36285  1_565   S
    Zr4    O31       3.53654  1_556   S
    N30    O32       2.36406      .   S
    Zr3    O32       3.54970      .   S
    N35    O36       2.36434      .   S
    Zr15   O36       3.55045      .   S
    N35    O37       2.36339  1_565   S
    Zr8    O37       3.53776      .   S
    N38    O39       1.18570      .   S
    Zr15   O39       2.33450      .   S
    C40    O41       0.67038      .   S
    Zr2    O41       1.64544      .   S
    C40    O42       0.67475  1_556   S
    Zr2    O42       1.64058  1_556   S
    C40    O43       1.09953  1_556   S
    Zr3    O43       2.24706      .   S
    C40    O44       1.06460  1_556   S
    N18    O44       2.08703      .   S
    C45    O46       1.33294      .   S
    N33    O46       2.87151  1_455   S
    C45    O47       0.68752      .   S
    Zr10   O47       1.70934  1_554   S
    C45    O48       1.07118  1_655   S
    Zr2    O48       2.21121      .   S
    C45    O49       0.69192      .   S
    Zr10   O49       1.70236  1_554   S
    C45    O50       1.10586      .   S
    Zr13   O50       2.30346      .   S
    C51    O52       0.68714      .   S
    Zr14   O52       1.71004      .   S
    C51    O53       1.07176  1_655   S
    Zr6    O53       2.21235      .   S
    C51    O54       1.33177      .   S
    N34    O54       2.86781  1_455   S
    C51    O55       0.69241      .   S
    Zr14   O55       1.70204      .   S
    C51    O56       1.10530      .   S
    Zr9    O56       2.30211      .   S
    C57    O58       0.73594      .   S
    Zr12   O58       1.70816      .   S
    C57    O59       1.28737      .   S
    N18    O59       2.76817      .   S
    C60    O61       1.21025      .   S
    N16    O61       2.69967      .   S
    C60    O62       1.04015      .   S
    Zr11   O62       2.10307      .   S
    C63    O64       1.05408      .   S
    N26    O64       2.07272  1_655   S
    C63    O65       1.07818      .   S
    Zr1    O65       2.17995      .   S
    C63    O66       0.77895      .   S
    Zr0    O66       1.83563      .   S
    C67    O68       1.07562      .   S
    N33    O68       2.38014  1_455   S
    C67    O69       1.06911      .   S
    Zr13   O69       2.15997      .   S
    C67    O70       0.87542      .   S
    Zr15   O70       1.88837      .   S
    C71    O72       1.08455      .   S
    N26    O72       2.38057  1_655   S
    C71    O73       1.06907      .   S
    Zr1    O73       2.16025      .   S
    C71    O74       0.87569      .   S
    Zr3    O74       1.88916      .   S
    C75    O76       0.67457      .   S
    Zr14   O76       1.64085      .   S
    C75    O77       1.09943      .   S
    Zr15   O77       2.24676      .   S
    C75    O78       0.67057      .   S
    Zr14   O78       1.64521      .   S
    C75    O79       1.06470      .   S
    N38    O79       2.08739      .   S
    C80    O81       1.31807      .   S
    N16    O81       2.85083      .   S
    C80    O82       1.05196      .   S
    Zr11   O82       2.18019      .   S
    C80    O83       0.75724      .   S
    Zr13   O83       1.69832      .   S
    C84    O85       0.72150      .   S
    Zr0    O85       1.71196      .   S
    C84    O86       1.29017      .   S
    N33    O86       2.77255      .   S
    C84    O87       0.67266      .   S
    Zr0    O87       1.76997      .   S
    C88    O89       0.67475  1_554   S
    Zr10   O89       1.64067  1_554   S
    C88    O90       1.09961  1_554   S
    Zr11   O90       2.24731      .   S
    C88    O91       1.06513  1_554   S
    N16    O91       2.08928      .   S
    C88    O92       0.67044      .   S
    Zr10   O92       1.64543      .   S
    C93    O94       0.73603      .   S
    Zr4    O94       1.70822      .   S
    C93    O95       1.28782      .   S
    N16    O95       2.76976      .   S
    C96    O97       1.04010      .   S
    Zr3    O97       2.10294      .   S
    C96    O98       1.22599      .   S
    N18    O98       2.69101      .   S
    C99    O100      1.05229      .   S
    N33    O100      2.06750  1_455   S
    C99    O101      0.77828      .   S
    Zr12   O101      1.83567  1_554   S
    C99    O102      1.07781      .   S
    Zr13   O102      2.17896      .   S
    C103   O104      0.75775      .   S
    Zr9    O104      1.69842      .   S
    C103   O105      1.31891      .   S
    N38    O105      2.85334      .   S
    C103   O106      1.05208      .   S
    Zr15   O106      2.18064      .   S
    C107   O108      0.69230      .   S
    Zr6    O108      1.70211      .   S
    C107   O109      1.10548      .   S
    Zr1    O109      2.30268      .   S
    C107   O110      1.07165  1_455   S
    Zr14   O110      2.21195      .   S
    C107   O111      0.68724      .   S
    Zr6    O111      1.70989      .   S
    C107   O112      1.33378      .   S
    N26    O112      2.87308  1_655   S
    C113   O114      1.28910      .   S
    N26    O114      2.77051      .   S
    C113   O115      0.72276      .   S
    Zr12   O115      1.71319      .   S
    C116   O117      1.22582      .   S
    N38    O117      2.69068      .   S
    C116   O118      1.04032      .   S
    Zr15   O118      2.10341      .   S
    C119   O120      1.05202      .   S
    Zr3    O120      2.18035      .   S
    C119   O121      0.75732      .   S
    Zr5    O121      1.69822      .   S
    C119   O122      1.31885      .   S
    N18    O122      2.85318      .   S
    C123   O124      1.29144      .   S
    N34    O124      2.77682      .   S
    C123   O125      0.72295      .   S
    Zr4    O125      1.71337      .   S
    C126   O127      1.05400      .   S
    N20    O127      2.07260  1_655   S
    C126   O128      1.07779      .   S
    Zr5    O128      2.17880      .   S
    C126   O129      0.77836      .   S
    Zr4    O129      1.83581  1_556   S
    C130   O131      0.87551      .   S
    Zr11   O131      1.88905      .   S
    C130   O132      1.06913      .   S
    Zr9    O132      2.16085      .   S
    C130   O133      1.07720      .   S
    N34    O133      2.38346  1_455   S
    C134   O135      1.22563      .   S
    N21    O135      2.69011      .   S
    C134   O136      1.04037      .   S
    Zr7    O136      2.10360      .   S
    C137   O138      1.31884      .   S
    N21    O138      2.85312      .   S
    C137   O139      0.75749      .   S
    Zr1    O139      1.69845      .   S
    C137   O140      1.05199      .   S
    Zr7    O140      2.18059      .   S
    C141   O142      1.28919      .   S
    N20    O142      2.76992      .   S
    C141   O143      0.72124      .   S
    Zr8    O143      1.71109      .   S
    C141   O144      0.67238      .   S
    Zr8    O144      1.76913      .   S
    C145   O146      1.08400      .   S
    N20    O146      2.37935  1_655   S
    C145   O147      1.06923      .   S
    Zr5    O147      2.16050      .   S
    C145   O148      0.87518      .   S
    Zr7    O148      1.88807      .   S
    C149   O150      1.28739      .   S
    N21    O150      2.76745      .   S
    C149   O151      0.73606      .   S
    Zr8    O151      1.70746      .   S
    C152   O153      1.09926      .   S
    Zr7    O153      2.24664      .   S
    C152   O154      0.67463      .   S
    Zr6    O154      1.64084      .   S
    C152   O155      1.06479      .   S
    N21    O155      2.08765      .   S
    C152   O156      0.67056      .   S
    Zr6    O156      1.64532      .   S
    C157   O158      0.77934      .   S
    Zr8    O158      1.83639      .   S
    C157   O159      1.07823      .   S
    Zr9    O159      2.17989      .   S
    C157   O160      1.05125      .   S
    N34    O160      2.06467  1_455   S
    C161   O162      1.07119  1_455   S
    Zr10   O162      2.21133      .   S
    C161   O163      0.68741      .   S
    Zr2    O163      1.70931  1_556   S
    C161   O164      1.33392      .   S
    N20    O164      2.87338  1_655   S
    C161   O165      0.69196      .   S
    Zr2    O165      1.70214  1_556   S
    C161   O166      1.10584      .   S
    Zr5    O166      2.30330      .   S
    C167   O168      1.28717      .   S
    N38    O168      2.76759      .   S
    C167   O169      0.73600      .   S
    Zr0    O169      1.70743      .   S
