# CIF file generated by openbabel 2.4.90, see http://openbabel.sf.net
data_I
_chemical_name_common ''
_cell_length_a 12.772
_cell_length_b 15.1
_cell_length_c 19.445
_cell_angle_alpha 90.08
_cell_angle_beta 90.028
_cell_angle_gamma 89.993
_space_group_name_H-M_alt 'P 1'
_space_group_name_Hall 'P 1'
loop_
    _symmetry_equiv_pos_as_xyz
    x,y,z
loop_
    _atom_site_label
    _atom_site_type_symbol
    _atom_site_fract_x
    _atom_site_fract_y
    _atom_site_fract_z
    _atom_site_occupancy
    N0      N    0.51499   0.71807   0.98789   1.000
    N1      N    0.96320   0.06934   0.27137   1.000
    N2      N    0.98444   0.21781   0.98741   1.000
    N3      N    0.46712   0.06943   0.22867   1.000
    N4      N    0.48498   0.28198   0.01203   1.000
    N5      N    0.01111   0.71765   0.51266   1.000
    N6      N    0.96322   0.43079   0.77136   1.000
    N7      N    0.51497   0.78202   0.48791   1.000
    N8      N    0.01109   0.78224   0.01257   1.000
    N9      N    0.03311   0.56925   0.22861   1.000
    N10     N    0.48500   0.21802   0.51208   1.000
    N11     N    0.98443   0.28239   0.48729   1.000
    N12     N    0.46702   0.43052   0.72869   1.000
    N13     N    0.53295   0.56952   0.27130   1.000
    N14     N    0.03315   0.92874   0.72861   1.000
    N15     N    0.53286   0.92868   0.77131   1.000
    Zr16    Zr   0.28472   0.30273   0.16555   1.000
    O17     O    0.35002   0.21977   0.18748   1.000
    O18     O    0.35569   0.29033   0.11538   1.000
    O19     O    0.38481   0.40809   0.21075   1.000
    O20     O    0.16406   0.26021   0.09668   1.000
    Zr21    Zr   0.21535   0.80262   0.16623   1.000
    O22     O    0.15015   0.71965   0.18791   1.000
    O23     O    0.14346   0.79038   0.11597   1.000
    O24     O    0.33586   0.76026   0.09729   1.000
    O25     O    0.11039   0.90790   0.21124   1.000
    Zr26    Zr   0.71521   0.80281   0.33452   1.000
    O27     O    0.61517   0.90809   0.28929   1.000
    O28     O    0.83477   0.76021   0.40340   1.000
    O29     O    0.65000   0.71987   0.31254   1.000
    O30     O    0.64427   0.79042   0.38464   1.000
    Zr31    Zr   0.78465   0.30270   0.33377   1.000
    O32     O    0.85538   0.29053   0.38397   1.000
    O33     O    0.84888   0.21977   0.31207   1.000
    O34     O    0.66413   0.26030   0.40270   1.000
    O35     O    0.88487   0.40792   0.28877   1.000
    Zr36    Zr   0.78462   0.19742   0.83376   1.000
    O37     O    0.84891   0.28038   0.81207   1.000
    O38     O    0.85541   0.20966   0.88401   1.000
    O39     O    0.88485   0.09113   0.78875   1.000
    O40     O    0.66411   0.23978   0.90268   1.000
    Zr41    Zr   0.21532   0.69734   0.66620   1.000
    O42     O    0.11036   0.59212   0.71120   1.000
    O43     O    0.15018   0.77978   0.68790   1.000
    O44     O    0.14347   0.70952   0.61599   1.000
    O45     O    0.33584   0.73974   0.59728   1.000
    Zr46    Zr   0.28475   0.19723   0.66545   1.000
    O47     O    0.16409   0.23983   0.59656   1.000
    O48     O    0.38480   0.09097   0.71069   1.000
    O49     O    0.34997   0.28017   0.68744   1.000
    O50     O    0.35570   0.20962   0.61533   1.000
    Zr51    Zr   0.71524   0.69731   0.83443   1.000
    O52     O    0.83480   0.73983   0.90329   1.000
    O53     O    0.64995   0.77979   0.81250   1.000
    O54     O    0.64427   0.70971   0.88459   1.000
    O55     O    0.61516   0.59195   0.78924   1.000
loop_
    _geom_bond_atom_site_label_1
    _geom_bond_atom_site_label_2
    _geom_bond_distance
    _geom_bond_site_symmetry_2
    _ccdc_geom_bond_type
    Zr16   O17       1.56453      .   S
    N3     O17       2.83455      .   S
    Zr16   O18       1.34487      .   S
    N4     O18       2.60456      .   S
    Zr16   O19       2.22096      .   S
    N13    O19       3.30143      .   S
    Zr16   O20       2.13925      .   S
    N2     O20       3.19054  1_656   S
    Zr21   O22       1.56280      .   S
    N9     O22       2.83297      .   S
    Zr21   O23       1.35314      .   S
    N8     O23       2.62914      .   S
    Zr21   O24       2.13892      .   S
    N0     O24       3.18844  1_556   S
    Zr21   O25       2.25551      .   S
    N1     O25       3.29194  1_645   S
    Zr26   O27       2.22173      .   S
    N3     O27       3.30222  1_545   S
    Zr26   O28       2.13066      .   S
    N5     O28       3.16190  1_455   S
    Zr26   O29       1.56312      .   S
    N13    O29       2.83310      .   S
    Zr26   O30       1.34433      .   S
    N7     O30       2.60372      .   S
    Zr31   O32       1.34260      .   S
    N11    O32       2.60090      .   S
    Zr31   O33       1.55491      .   S
    N1     O33       2.81293      .   S
    Zr31   O34       2.14015      .   S
    N10    O34       3.18970      .   S
    Zr31   O35       2.22131      .   S
    N9     O35       3.30137  1_455   S
    Zr36   O37       1.55672      .   S
    N6     O37       2.81485      .   S
    Zr36   O38       1.34348      .   S
    N2     O38       2.60189      .   S
    Zr36   O39       2.23099      .   S
    N14    O39       3.31063  1_465   S
    Zr36   O40       2.13867      .   S
    N4     O40       3.18779  1_554   S
    Zr41   O42       2.25664      .   S
    N6     O42       3.29334  1_655   S
    Zr41   O43       1.55519      .   S
    N14    O43       2.81343      .   S
    Zr41   O44       1.35219      .   S
    N5     O44       2.62819      .   S
    Zr41   O45       2.14006      .   S
    N7     O45       3.18963      .   S
    Zr46   O47       2.14088      .   S
    N11    O47       3.19247  1_655   S
    Zr46   O48       2.23234      .   S
    N15    O48       3.31304  1_565   S
    Zr46   O49       1.56318      .   S
    N12    O49       2.83317      .   S
    Zr46   O50       1.34422      .   S
    N10    O50       2.60365      .   S
    Zr51   O52       2.12908      .   S
    N8     O52       3.16014  1_454   S
    Zr51   O53       1.55866      .   S
    N15    O53       2.81696      .   S
    Zr51   O54       1.34470      .   S
    N0     O54       2.60378      .   S
    Zr51   O55       2.22090      .   S
    N12    O55       3.30139      .   S
