# CIF file generated by openbabel 2.4.90, see http://openbabel.sf.net
data_I
_chemical_name_common ''
_cell_length_a 22.522
_cell_length_b 16.308
_cell_length_c 14.511
_cell_angle_alpha 89.989
_cell_angle_beta 95.208
_cell_angle_gamma 89.979
_space_group_name_H-M_alt 'P 1'
_space_group_name_Hall 'P 1'
loop_
    _symmetry_equiv_pos_as_xyz
    x,y,z
loop_
    _atom_site_label
    _atom_site_type_symbol
    _atom_site_fract_x
    _atom_site_fract_y
    _atom_site_fract_z
    _atom_site_occupancy
    N0      N    0.99969   0.50002   0.49995   1.000
    N1      N    0.75000   0.99922   0.50001   1.000
    N2      N    0.49999   0.50002   0.49987   1.000
    N3      N    0.99997   0.00001   0.49996   1.000
    N4      N    0.75000   0.50002   0.49997   1.000
    N5      N    0.24998   0.50002   0.49995   1.000
    N6      N    0.49999   0.00001   0.49996   1.000
    N7      N    0.24999   1.00000   0.99988   1.000
    N8      N    0.49999   0.50001   0.99997   1.000
    N9      N    0.99999   0.50001   0.99995   1.000
    N10     N    0.24997   0.99928   0.49991   1.000
    N11     N    0.74999   0.00002   0.99987   1.000
    Zr12    Zr   0.18909   0.69327   0.09674   1.000
    O13     O    0.27918   0.63436   0.20366   1.000
    O14     O    0.14175   0.76999   0.21843   1.000
    O15     O    0.21948   0.81627   0.06326   1.000
    O16     O    0.11535   0.60861   0.06444   1.000
    Zr17    Zr   0.06062   0.18974   0.90340   1.000
    O18     O    0.97066   0.13239   0.79638   1.000
    O19     O    0.10806   0.26824   0.78161   1.000
    O20     O    0.03012   0.31448   0.93684   1.000
    O21     O    0.13449   0.10683   0.93550   1.000
    Zr22    Zr   0.93908   0.80686   0.09653   1.000
    O23     O    0.86534   0.89148   0.06433   1.000
    O24     O    0.02918   0.86554   0.20354   1.000
    O25     O    0.89178   0.73007   0.21832   1.000
    O26     O    0.96947   0.68383   0.06308   1.000
    Zr27    Zr   0.56089   0.18975   0.90340   1.000
    O28     O    0.47079   0.13241   0.79635   1.000
    O29     O    0.60820   0.26825   0.78161   1.000
    O30     O    0.53050   0.31449   0.93684   1.000
    O31     O    0.63463   0.10685   0.93556   1.000
    Zr32    Zr   0.43908   0.80685   0.09653   1.000
    O33     O    0.36535   0.89146   0.06433   1.000
    O34     O    0.52919   0.86552   0.20358   1.000
    O35     O    0.39178   0.73006   0.21832   1.000
    O36     O    0.46947   0.68382   0.06309   1.000
    Zr37    Zr   0.68909   0.69328   0.09677   1.000
    O38     O    0.71948   0.81629   0.06321   1.000
    O39     O    0.77910   0.63437   0.20370   1.000
    O40     O    0.64176   0.77000   0.21845   1.000
    O41     O    0.61535   0.60862   0.06446   1.000
    Zr42    Zr   0.81089   0.30675   0.90320   1.000
    O43     O    0.72080   0.36566   0.79623   1.000
    O44     O    0.85821   0.23002   0.78151   1.000
    O45     O    0.78049   0.18375   0.93659   1.000
    O46     O    0.88463   0.39141   0.93549   1.000
    Zr47    Zr   0.31089   0.30674   0.90316   1.000
    O48     O    0.35822   0.23002   0.78147   1.000
    O49     O    0.22073   0.36566   0.79622   1.000
    O50     O    0.28050   0.18372   0.93659   1.000
    O51     O    0.38463   0.39140   0.93547   1.000
loop_
    _geom_bond_atom_site_label_1
    _geom_bond_atom_site_label_2
    _geom_bond_distance
    _geom_bond_site_symmetry_2
    _ccdc_geom_bond_type
    Zr12   O13       2.62173      .   S
    N2     O13       6.64189      .   S
    Zr12   O14       2.48238      .   S
    N3     O14       6.58202  1_645   S
    Zr12   O15       2.18849      .   S
    N7     O15       3.22651  1_556   S
    Zr12   O16       2.17817      .   S
    N9     O16       3.21332  1_656   S
    Zr17   O18       2.61205  1_455   S
    N1     O18       6.63632  1_565   S
    Zr17   O19       2.49934      .   S
    N5     O19       6.60178      .   S
    Zr17   O20       2.21475      .   S
    N9     O20       3.25059  1_655   S
    Zr17   O21       2.16116      .   S
    N7     O21       3.19842  1_565   S
    Zr22   O23       2.17655      .   S
    N11    O23       3.21144  1_546   S
    Zr22   O24       2.62207  1_655   S
    N10    O24       6.64151      .   S
    Zr22   O25       2.48354      .   S
    N4     O25       6.58388      .   S
    Zr22   O26       2.18838      .   S
    N9     O26       3.22677  1_556   S
    Zr27   O28       2.61456      .   S
    N10    O28       6.63907  1_565   S
    Zr27   O29       2.49779      .   S
    N4     O29       6.60011      .   S
    Zr27   O30       2.21391      .   S
    N8     O30       3.25256      .   S
    Zr27   O31       2.15887      .   S
    N11    O31       3.19561      .   S
    Zr32   O33       2.17650      .   S
    N7     O33       3.21128  1_556   S
    Zr32   O34       2.62237      .   S
    N1     O34       6.64196      .   S
    Zr32   O35       2.48352      .   S
    N5     O35       6.58386      .   S
    Zr32   O36       2.18829      .   S
    N8     O36       3.22663  1_556   S
    Zr37   O38       2.18887      .   S
    N11    O38       3.22632  1_546   S
    Zr37   O39       2.62056      .   S
    N0     O39       6.63891      .   S
    Zr37   O40       2.48204      .   S
    N6     O40       6.58156  1_545   S
    Zr37   O41       2.17832      .   S
    N8     O41       3.21341  1_556   S
    Zr42   O43       2.62211      .   S
    N2     O43       6.64319      .   S
    Zr42   O44       2.48232      .   S
    N3     O44       6.58177      .   S
    Zr42   O45       2.18817      .   S
    N11    O45       3.22607      .   S
    Zr42   O46       2.17814      .   S
    N9     O46       3.21323      .   S
    Zr47   O48       2.48222      .   S
    N6     O48       6.58154      .   S
    Zr47   O49       2.62306      .   S
    N0     O49       6.64600  1_655   S
    Zr47   O50       2.18839      .   S
    N7     O50       3.22615  1_565   S
    Zr47   O51       2.17828      .   S
    N8     O51       3.21337      .   S
