# CIF file generated by openbabel 2.4.90, see http://openbabel.sf.net
data_I
_chemical_name_common ''
_cell_length_a 15.841
_cell_length_b 16.164
_cell_length_c 22.838
_cell_angle_alpha 90.009
_cell_angle_beta 89.993
_cell_angle_gamma 89.94
_space_group_name_H-M_alt 'P 1'
_space_group_name_Hall 'P 1'
loop_
    _symmetry_equiv_pos_as_xyz
    x,y,z
loop_
    _atom_site_label
    _atom_site_type_symbol
    _atom_site_fract_x
    _atom_site_fract_y
    _atom_site_fract_z
    _atom_site_occupancy
    H0      H    0.77091   0.71673   0.11857   1.000
    H1      H    0.83466   0.80590   0.04318   1.000
    H2      H    0.05456   0.64776   0.04092   1.000
    H3      H    0.98953   0.56004   0.11708   1.000
    H4      H    0.93529   0.65243   0.93470   1.000
    H5      H    0.00341   0.56348   0.86070   1.000
    H6      H    0.22790   0.71174   0.87037   1.000
    H7      H    0.16045   0.80262   0.94317   1.000
    H8      H    0.76453   0.28550   0.39073   1.000
    H9      H    0.70383   0.18682   0.46137   1.000
    H10     H    0.47357   0.33011   0.46349   1.000
    H11     H    0.53430   0.42519   0.39033   1.000
    H12     H    0.59690   0.32686   0.57263   1.000
    H13     H    0.52163   0.41856   0.64109   1.000
    H14     H    0.29601   0.27442   0.61874   1.000
    H15     H    0.37177   0.17844   0.55376   1.000
    H16     H    0.73089   0.73017   0.27063   1.000
    H17     H    0.66161   0.87036   0.27300   1.000
    H18     H    0.42135   0.74475   0.26370   1.000
    H19     H    0.49974   0.61106   0.26048   1.000
    H20     H    0.42325   0.89976   0.26407   1.000
    H21     H    0.59365   0.10347   0.28068   1.000
    H22     H    0.59432   0.25796   0.28647   1.000
    H23     H    0.51893   0.39235   0.27510   1.000
    H24     H    0.29525   0.27465   0.23101   1.000
    H25     H    0.36215   0.13397   0.24038   1.000
    H26     H    0.27105   0.28564   0.88269   1.000
    H27     H    0.33420   0.19587   0.95799   1.000
    H28     H    0.55523   0.35205   0.96020   1.000
    H29     H    0.49092   0.44021   0.88398   1.000
    H30     H    0.43504   0.34706   0.06634   1.000
    H31     H    0.50322   0.43628   0.14008   1.000
    H32     H    0.72786   0.28774   0.13048   1.000
    H33     H    0.66036   0.19662   0.05783   1.000
    H34     H    0.26450   0.71390   0.60921   1.000
    H35     H    0.20391   0.81264   0.53848   1.000
    H36     H    0.97353   0.67003   0.53653   1.000
    H37     H    0.03413   0.57490   0.60976   1.000
    H38     H    0.09699   0.67316   0.42700   1.000
    H39     H    0.02149   0.58118   0.35900   1.000
    H40     H    0.79553   0.72500   0.38225   1.000
    H41     H    0.87151   0.82134   0.44667   1.000
    H42     H    0.23151   0.26936   0.73259   1.000
    H43     H    0.16228   0.12929   0.72995   1.000
    H44     H    0.92182   0.25554   0.73450   1.000
    H45     H    0.00010   0.38906   0.73832   1.000
    H46     H    0.92359   0.10061   0.73497   1.000
    H47     H    0.09374   0.89621   0.72015   1.000
    H48     H    0.09441   0.74184   0.71428   1.000
    H49     H    0.01900   0.60758   0.72531   1.000
    H50     H    0.79477   0.72563   0.76819   1.000
    H51     H    0.86165   0.86621   0.75900   1.000
    H52     H    0.77110   0.28567   0.61724   1.000
    H53     H    0.83428   0.19587   0.54195   1.000
    H54     H    0.05528   0.35207   0.53971   1.000
    H55     H    0.99096   0.44026   0.61595   1.000
    H56     H    0.93518   0.34689   0.43356   1.000
    H57     H    0.00337   0.43596   0.35975   1.000
    H58     H    0.22803   0.28748   0.36945   1.000
    H59     H    0.16048   0.19645   0.44214   1.000
    H60     H    0.76449   0.71386   0.89078   1.000
    H61     H    0.70390   0.81263   0.96152   1.000
    H62     H    0.47348   0.67004   0.96347   1.000
    H63     H    0.53411   0.57489   0.89020   1.000
    H64     H    0.59698   0.67319   0.07285   1.000
    H65     H    0.52166   0.58144   0.14110   1.000
    H66     H    0.29577   0.72552   0.11836   1.000
    H67     H    0.37156   0.82153   0.05357   1.000
    H68     H    0.73149   0.26936   0.76689   1.000
    H69     H    0.66224   0.12931   0.76956   1.000
    H70     H    0.42177   0.25560   0.76563   1.000
    H71     H    0.50008   0.38912   0.76174   1.000
    H72     H    0.42351   0.10067   0.76512   1.000
    H73     H    0.59370   0.89626   0.77966   1.000
    H74     H    0.59439   0.74189   0.78550   1.000
    H75     H    0.51897   0.60763   0.77450   1.000
    H76     H    0.29455   0.72567   0.73215   1.000
    H77     H    0.36144   0.86625   0.74124   1.000
    H78     H    0.27107   0.71498   0.38201   1.000
    H79     H    0.33451   0.80488   0.45715   1.000
    H80     H    0.55549   0.64817   0.45923   1.000
    H81     H    0.49090   0.55991   0.38310   1.000
    H82     H    0.43542   0.65264   0.56545   1.000
    H83     H    0.50355   0.56370   0.63943   1.000
    H84     H    0.72808   0.71191   0.62970   1.000
    H85     H    0.66062   0.80279   0.55691   1.000
    H86     H    0.26446   0.28560   0.10926   1.000
    H87     H    0.20374   0.18685   0.03867   1.000
    H88     H    0.97361   0.33029   0.03641   1.000
    H89     H    0.03436   0.42550   0.10940   1.000
    H90     H    0.09686   0.32682   0.92720   1.000
    H91     H    0.02158   0.41846   0.85882   1.000
    C92     C    0.98365   0.81546   0.73582   1.000
    C93     C    0.02793   0.74139   0.72653   1.000
    C94     C    0.98624   0.66607   0.73249   1.000
    C95     C    0.86092   0.73299   0.75644   1.000
    H96     H    0.79597   0.27435   0.88125   1.000
    H97     H    0.87173   0.17844   0.94625   1.000
    H98     H    0.23105   0.73029   0.23052   1.000
    H99     H    0.16172   0.87046   0.22797   1.000
    H100    H    0.92147   0.74475   0.23656   1.000
    H101    H    0.99986   0.61113   0.24012   1.000
    H102    H    0.92329   0.89977   0.23602   1.000
    H103    H    0.09363   0.10354   0.21944   1.000
    H104    H    0.09428   0.25804   0.21352   1.000
    H105    H    0.01892   0.39243   0.22479   1.000
    H106    H    0.79501   0.27477   0.26843   1.000
    H107    H    0.86194   0.13409   0.25919   1.000
    C108    C    0.83627   0.57991   0.16946   1.000
    C109    C    0.87536   0.63225   0.12230   1.000
    C110    C    0.83297   0.70196   0.10100   1.000
    C111    C    0.86944   0.75199   0.05822   1.000
    C112    C    0.94949   0.73314   0.03570   1.000
    C113    C    0.99213   0.66338   0.05750   1.000
    C114    C    0.95555   0.61347   0.10010   1.000
    C115    C    0.99591   0.78783   0.99057   1.000
    C116    C    0.05667   0.84438   0.02702   1.000
    C117    C    0.93577   0.84528   0.95466   1.000
    C118    C    0.04278   0.73379   0.94524   1.000
    C119    C    0.99951   0.66624   0.92081   1.000
    C120    C    0.03791   0.61544   0.87937   1.000
    C121    C    0.12084   0.63133   0.86127   1.000
    C122    C    0.16358   0.69943   0.88470   1.000
    C123    C    0.12510   0.75034   0.92610   1.000
    C124    C    0.45659   0.61312   0.40018   1.000
    C125    C    0.49606   0.78784   0.50940   1.000
    C126    C    0.55679   0.84437   0.47299   1.000
    C127    C    0.43579   0.84529   0.54532   1.000
    C128    C    0.54295   0.73396   0.55489   1.000
    C129    C    0.16443   0.57697   0.81743   1.000
    C130    C    0.69204   0.41906   0.34137   1.000
    C131    C    0.65400   0.36185   0.38604   1.000
    C132    C    0.70049   0.29423   0.40600   1.000
    C133    C    0.66588   0.23906   0.44700   1.000
    C134    C    0.58404   0.25149   0.46850   1.000
    C135    C    0.53733   0.31923   0.44740   1.000
    C136    C    0.57154   0.37345   0.40660   1.000
    C137    C    0.54071   0.19337   0.51302   1.000
    C138    C    0.48303   0.13433   0.47647   1.000
    C139    C    0.60461   0.13957   0.54921   1.000
    C140    C    0.49029   0.24583   0.55750   1.000
    C141    C    0.53130   0.31373   0.58332   1.000
    C142    C    0.48870   0.36637   0.62139   1.000
    C143    C    0.40316   0.35300   0.63383   1.000
    C144    C    0.36255   0.28454   0.60915   1.000
    C145    C    0.40572   0.23084   0.57194   1.000
    C146    C    0.35505   0.41065   0.67306   1.000
    C147    C    0.66262   0.73723   0.26914   1.000
    C148    C    0.62430   0.81398   0.27057   1.000
    C149    C    0.53569   0.81896   0.26800   1.000
    C150    C    0.49010   0.74473   0.26531   1.000
    C151    C    0.53334   0.66968   0.26389   1.000
    C152    C    0.49249   0.89868   0.26689   1.000
    C153    C    0.52596   0.10471   0.27024   1.000
    C154    C    0.48382   0.18455   0.26432   1.000
    C155    C    0.52799   0.25853   0.27380   1.000
    C156    C    0.48628   0.33391   0.26775   1.000
    C157    C    0.36127   0.26718   0.24310   1.000
    C158    C    0.39823   0.19010   0.24837   1.000
    C159    C    0.33783   0.42140   0.83120   1.000
    C160    C    0.37624   0.36903   0.87867   1.000
    C161    C    0.33327   0.29984   0.90017   1.000
    C162    C    0.36940   0.24945   0.94295   1.000
    C163    C    0.44965   0.26747   0.96539   1.000
    C164    C    0.49269   0.33695   0.94362   1.000
    C165    C    0.45651   0.38713   0.90097   1.000
    C166    C    0.49626   0.21212   0.01015   1.000
    C167    C    0.55709   0.15643   0.97310   1.000
    C168    C    0.43616   0.15385   0.04551   1.000
    C169    C    0.54270   0.26567   0.05581   1.000
    C170    C    0.49929   0.33326   0.08021   1.000
    C171    C    0.53772   0.38419   0.12148   1.000
    C172    C    0.62073   0.36830   0.13940   1.000
    C173    C    0.66350   0.30002   0.11610   1.000
    C174    C    0.62502   0.24899   0.07491   1.000
    C175    C    0.66441   0.42291   0.18296   1.000
    C176    C    0.19191   0.58073   0.65871   1.000
    C177    C    0.15389   0.63791   0.61398   1.000
    C178    C    0.20044   0.70535   0.59326   1.000
    C179    C    0.16591   0.76055   0.55290   1.000
    C180    C    0.08404   0.74834   0.53144   1.000
    C181    C    0.03728   0.68074   0.55254   1.000
    C182    C    0.07142   0.62650   0.59345   1.000
    C183    C    0.04072   0.80657   0.48694   1.000
    C184    C    0.98304   0.86565   0.52353   1.000
    C185    C    0.10459   0.86036   0.45078   1.000
    C186    C    0.99027   0.75413   0.44253   1.000
    C187    C    0.03127   0.68620   0.41665   1.000
    C188    C    0.98853   0.63338   0.37884   1.000
    C189    C    0.90284   0.64658   0.36674   1.000
    C190    C    0.86220   0.71504   0.39152   1.000
    C191    C    0.90551   0.76895   0.42843   1.000
    C192    C    0.85461   0.58898   0.32761   1.000
    C193    C    0.16319   0.26247   0.73302   1.000
    C194    C    0.12491   0.18578   0.73140   1.000
    C195    C    0.03623   0.18099   0.73232   1.000
    C196    C    0.99061   0.25537   0.73408   1.000
    C197    C    0.03380   0.33034   0.73577   1.000
    C198    C    0.99290   0.10140   0.73321   1.000
    C199    C    0.02592   0.89521   0.73022   1.000
    C200    C    0.89787   0.81003   0.75129   1.000
    C201    C    0.83787   0.42142   0.66871   1.000
    C202    C    0.87629   0.36906   0.62127   1.000
    C203    C    0.83332   0.29987   0.59976   1.000
    C204    C    0.86947   0.24946   0.55698   1.000
    C205    C    0.94973   0.26747   0.53455   1.000
    C206    C    0.99275   0.33696   0.55630   1.000
    C207    C    0.95655   0.38717   0.59896   1.000
    C208    C    0.99639   0.21207   0.48984   1.000
    C209    C    0.05714   0.15640   0.52682   1.000
    C210    C    0.93634   0.15379   0.45448   1.000
    C211    C    0.04285   0.26553   0.44415   1.000
    C212    C    0.99944   0.33307   0.41970   1.000
    C213    C    0.03785   0.38390   0.37839   1.000
    C214    C    0.12089   0.36802   0.36040   1.000
    C215    C    0.16366   0.29977   0.38378   1.000
    C216    C    0.12516   0.24881   0.42504   1.000
    C217    C    0.16453   0.42276   0.31700   1.000
    C218    C    0.69192   0.58070   0.84127   1.000
    C219    C    0.65388   0.63790   0.88600   1.000
    C220    C    0.70043   0.70533   0.90673   1.000
    C221    C    0.66589   0.76054   0.94710   1.000
    C222    C    0.58402   0.74833   0.96855   1.000
    C223    C    0.53725   0.68074   0.94745   1.000
    C224    C    0.57140   0.62649   0.90653   1.000
    C225    C    0.54070   0.80658   0.01306   1.000
    C226    C    0.48303   0.86566   0.97646   1.000
    C227    C    0.60458   0.86037   0.04921   1.000
    C228    C    0.49026   0.75422   0.05754   1.000
    C229    C    0.53131   0.68631   0.08341   1.000
    C230    C    0.48867   0.63363   0.12138   1.000
    C231    C    0.40304   0.64696   0.13367   1.000
    C232    C    0.36238   0.71542   0.10892   1.000
    C233    C    0.40558   0.76915   0.07182   1.000
    C234    C    0.35496   0.58934   0.17288   1.000
    C235    C    0.66317   0.26249   0.76661   1.000
    C236    C    0.62487   0.18580   0.76820   1.000
    C237    C    0.53619   0.18103   0.76750   1.000
    C238    C    0.49057   0.25542   0.76590   1.000
    C239    C    0.53378   0.33039   0.76418   1.000
    C240    C    0.49283   0.10145   0.76670   1.000
    C241    C    0.52585   0.89526   0.76972   1.000
    C242    C    0.48354   0.81551   0.76421   1.000
    C243    C    0.52788   0.74144   0.77340   1.000
    C244    C    0.48616   0.66611   0.76748   1.000
    C245    C    0.36074   0.73303   0.74378   1.000
    C246    C    0.39770   0.81007   0.74891   1.000
    C247    C    0.33761   0.57869   0.33095   1.000
    C248    C    0.37621   0.63132   0.37807   1.000
    C249    C    0.33332   0.70072   0.39945   1.000
    C250    C    0.36960   0.75115   0.44200   1.000
    C251    C    0.44985   0.73289   0.46440   1.000
    C252    C    0.49291   0.66335   0.44270   1.000
    C253    C    0.49964   0.66644   0.57934   1.000
    C254    C    0.53805   0.61566   0.62076   1.000
    C255    C    0.62100   0.63153   0.63882   1.000
    C256    C    0.66374   0.69962   0.61535   1.000
    C257    C    0.62527   0.75052   0.57400   1.000
    C258    C    0.66455   0.57710   0.68261   1.000
    C259    C    0.19203   0.41925   0.15856   1.000
    C260    C    0.15398   0.36204   0.11380   1.000
    C261    C    0.20043   0.29434   0.09328   1.000
    C262    C    0.16582   0.23913   0.05299   1.000
    C263    C    0.08399   0.25157   0.03147   1.000
    C264    C    0.03733   0.31939   0.05246   1.000
    C265    C    0.07156   0.37367   0.09328   1.000
    C266    C    0.04068   0.19340   0.98695   1.000
    C267    C    0.98303   0.13434   0.02350   1.000
    C268    C    0.10460   0.13959   0.95076   1.000
    C269    C    0.99026   0.24581   0.94246   1.000
    C270    C    0.03125   0.31368   0.91661   1.000
    C271    C    0.98866   0.36630   0.87854   1.000
    C272    C    0.90311   0.35292   0.86612   1.000
    C273    C    0.86251   0.28449   0.89083   1.000
    C274    C    0.90568   0.23082   0.92805   1.000
    C275    C    0.85501   0.41057   0.82690   1.000
    C276    C    0.16276   0.73733   0.23186   1.000
    C277    C    0.12442   0.81406   0.23032   1.000
    C278    C    0.03578   0.81902   0.23237   1.000
    C279    C    0.99023   0.74477   0.23519   1.000
    C280    C    0.03348   0.66974   0.23675   1.000
    C281    C    0.99254   0.89872   0.23340   1.000
    C282    C    0.02589   0.10478   0.22973   1.000
    C283    C    0.98372   0.18464   0.23548   1.000
    C284    C    0.02790   0.25862   0.22601   1.000
    C285    C    0.98621   0.33401   0.23208   1.000
    C286    C    0.86108   0.26730   0.25647   1.000
    C287    C    0.89806   0.19021   0.25126   1.000
    N288    N    0.61827   0.66577   0.26559   1.000
    N289    N    0.53549   0.96693   0.26778   1.000
    N290    N    0.48411   0.03652   0.26293   1.000
    N291    N    0.40412   0.33838   0.25272   1.000
    N292    N    0.11877   0.33409   0.73537   1.000
    N293    N    0.03576   0.03296   0.73311   1.000
    N294    N    0.98417   0.96356   0.73744   1.000
    N295    N    0.90393   0.66171   0.74713   1.000
    N296    N    0.61875   0.33412   0.76443   1.000
    N297    N    0.53569   0.03301   0.76677   1.000
    N298    N    0.48407   0.96360   0.76256   1.000
    N299    N    0.40380   0.66175   0.75297   1.000
    N300    N    0.11843   0.66583   0.23523   1.000
    N301    N    0.03548   0.96701   0.23246   1.000
    N302    N    0.98406   0.03660   0.23705   1.000
    N303    N    0.90399   0.33851   0.24697   1.000
    O304    O    0.77239   0.60980   0.19588   1.000
    O305    O    0.87114   0.51030   0.17996   1.000
    O306    O    0.23279   0.60457   0.79561   1.000
    O307    O    0.12999   0.50785   0.80487   1.000
    O308    O    0.76854   0.40568   0.32739   1.000
    O309    O    0.64424   0.47529   0.32026   1.000
    O310    O    0.39635   0.46936   0.69703   1.000
    O311    O    0.27684   0.39583   0.67977   1.000
    O312    O    0.27334   0.39232   0.80518   1.000
    O313    O    0.37396   0.49013   0.81999   1.000
    O314    O    0.73267   0.39516   0.20488   1.000
    O315    O    0.63019   0.49235   0.19516   1.000
    O316    O    0.26829   0.59424   0.67280   1.000
    O317    O    0.14428   0.52437   0.67971   1.000
    O318    O    0.89620   0.53093   0.30280   1.000
    O319    O    0.77615   0.60321   0.32160   1.000
    O320    O    0.77339   0.39234   0.69477   1.000
    O321    O    0.87399   0.49016   0.67997   1.000
    O322    O    0.23308   0.39537   0.29526   1.000
    O323    O    0.12998   0.49197   0.30469   1.000
    O324    O    0.76831   0.59418   0.82717   1.000
    O325    O    0.64428   0.52435   0.82026   1.000
    O326    O    0.39636   0.53063   0.19689   1.000
    O327    O    0.27673   0.60416   0.17961   1.000
    O328    O    0.27288   0.60761   0.30503   1.000
    O329    O    0.37383   0.50988   0.31984   1.000
    O330    O    0.73293   0.60465   0.70443   1.000
    O331    O    0.63007   0.50799   0.69512   1.000
    O332    O    0.26847   0.40578   0.17261   1.000
    O333    O    0.14429   0.47560   0.17962   1.000
    O334    O    0.89634   0.46925   0.80291   1.000
    O335    O    0.77680   0.39578   0.82019   1.000
    F336    F    0.01544   0.88129   0.07230   1.000
    F337    F    0.12106   0.79891   0.05020   1.000
    F338    F    0.09251   0.90608   0.99500   1.000
    F339    F    0.97760   0.88221   0.90994   1.000
    F340    F    0.90001   0.90627   0.98742   1.000
    F341    F    0.87088   0.80180   0.93017   1.000
    F342    F    0.41870   0.17687   0.45043   1.000
    F343    F    0.52627   0.09702   0.43249   1.000
    F344    F    0.44814   0.07336   0.50965   1.000
    F345    F    0.64418   0.08000   0.51722   1.000
    F346    F    0.56642   0.10085   0.59475   1.000
    F347    F    0.66668   0.18785   0.57254   1.000
    F348    F    0.51534   0.12130   0.92753   1.000
    F349    F    0.62180   0.20139   0.95001   1.000
    F350    F    0.59247   0.09390   0.00475   1.000
    F351    F    0.47748   0.11513   0.08985   1.000
    F352    F    0.39995   0.09372   0.01236   1.000
    F353    F    0.37160   0.19788   0.07009   1.000
    F354    F    0.91874   0.82317   0.54957   1.000
    F355    F    0.02624   0.90294   0.56748   1.000
    F356    F    0.94812   0.92665   0.49033   1.000
    F357    F    0.14410   0.91990   0.48276   1.000
    F358    F    0.06637   0.89913   0.40524   1.000
    F359    F    0.16670   0.81206   0.42740   1.000
    F360    F    0.01534   0.12129   0.57240   1.000
    F361    F    0.12183   0.20138   0.54997   1.000
    F362    F    0.09250   0.09388   0.49523   1.000
    F363    F    0.97757   0.11501   0.41010   1.000
    F364    F    0.89997   0.09374   0.48762   1.000
    F365    F    0.87199   0.19795   0.42986   1.000
    F366    F    0.41873   0.82317   0.95042   1.000
    F367    F    0.52625   0.90293   0.93249   1.000
    F368    F    0.44810   0.92666   0.00967   1.000
    F369    F    0.64411   0.91990   0.01720   1.000
    F370    F    0.56638   0.89915   0.09476   1.000
    F371    F    0.66669   0.81208   0.07255   1.000
    F372    F    0.51550   0.88118   0.42770   1.000
    F373    F    0.62126   0.79895   0.44976   1.000
    F374    F    0.59254   0.90612   0.50497   1.000
    F375    F    0.47758   0.88225   0.59004   1.000
    F376    F    0.40001   0.90624   0.51254   1.000
    F377    F    0.37090   0.80180   0.56980   1.000
    F378    F    0.91869   0.17688   0.04957   1.000
    F379    F    0.02626   0.09703   0.06749   1.000
    F380    F    0.94816   0.07337   0.99032   1.000
    F381    F    0.14416   0.08003   0.98274   1.000
    F382    F    0.06641   0.10086   0.90522   1.000
    F383    F    0.16668   0.18785   0.92743   1.000
loop_
    _geom_bond_atom_site_label_1
    _geom_bond_atom_site_label_2
    _geom_bond_distance
    _geom_bond_site_symmetry_2
    _ccdc_geom_bond_type
    F350   C167      1.36278  1_554   S
    F368   C226      1.36095  1_554   S
    C166   C168      1.56439      .   S
    C166   C169      1.54245      .   S
    C166   C163      1.54587  1_554   S
    C166   C167      1.56615  1_554   S
    F352   C168      1.35936      .   S
    C225   C227      1.56962      .   S
    C225   C228      1.54538      .   S
    C225   C222      1.54566  1_554   S
    C225   C226      1.56325  1_554   S
    F369   C227      1.36146      .   S
    C267   F378      1.36535      .   S
    C267   F379      1.35700  1_655   S
    C267   C266      1.56328  1_654   S
    C267   F380      1.36077  1_554   S
    C116   F337      1.36361      .   S
    C116   F336      1.36052      .   S
    C116   C115      1.56742  1_454   S
    C116   F338      1.36133  1_554   S
    C263   C264      1.40582      .   S
    C263   C262      1.40059      .   S
    C263   C266      1.54585  1_554   S
    C112   C113      1.40510      .   S
    C112   C111      1.40149      .   S
    C112   C115      1.54458  1_554   S
    H88    C264      1.08810  1_655   S
    H87    C262      1.08673      .   S
    H2     C113      1.08843  1_455   S
    H1     C111      1.08636      .   S
    C168   F353      1.36589      .   S
    C168   F351      1.35832      .   S
    C227   F371      1.36390      .   S
    C227   F370      1.35653      .   S
    C264   C265      1.39055      .   S
    C262   C261      1.39447      .   S
    H67    C233      1.08632      .   S
    C169   C174      1.40105      .   S
    C169   C170      1.40539      .   S
    C113   C114      1.39071      .   S
    C228   C233      1.40117      .   S
    C228   C229      1.40554      .   S
    H33    C174      1.08672      .   S
    C111   C110      1.39406      .   S
    H30    C170      1.08891      .   S
    C233   C232      1.39350      .   S
    H64    C229      1.08854      .   S
    C174   C173      1.39200      .   S
    C170   C171      1.39194      .   S
    C229   C230      1.39088      .   S
    C261   H86       1.08712      .   S
    C261   C260      1.39863      .   S
    C265   H89       1.08782      .   S
    C265   C260      1.39984      .   S
    C114   H3        1.08875      .   S
    C114   C109      1.40063      .   S
    C110   H0        1.08814      .   S
    C110   C109      1.39841      .   S
    C232   H66       1.08912      .   S
    C232   C231      1.39911      .   S
    C260   C259      1.50484      .   S
    C173   H32       1.08918      .   S
    C173   C172      1.39954      .   S
    C230   C231      1.40155      .   S
    C230   H65       1.08941      .   S
    C171   C172      1.40075      .   S
    C171   H31       1.08950      .   S
    C109   C108      1.50344      .   S
    C231   C234      1.50041      .   S
    C172   C175      1.49961      .   S
    C259   O332      1.27121      .   S
    C259   O333      1.27719      .   S
    C108   O305      1.27583      .   S
    C108   O304      1.27291      .   S
    C234   O327      1.27131      .   S
    C234   O326      1.27670      .   S
    C175   O315      1.27668      .   S
    C175   O314      1.27280      .   S
    H104   C284      1.08954      .   S
    H103   C282      1.09877      .   S
    H105   C285      1.09039  1_455   S
    C284   C285      1.39238  1_455   S
    C284   C283      1.40298  1_455   S
    H99    C277      1.08818      .   S
    C282   C283      1.45872  1_455   S
    C282   N302      1.29733  1_455   S
    C277   C276      1.38088      .   S
    C277   C278      1.40704      .   S
    H98    C276      1.08803      .   S
    H24    C157      1.08825      .   S
    C276   N300      1.35517      .   S
    C285   N303      1.34788      .   S
    C278   C281      1.45866  1_455   S
    C278   C279      1.40253  1_455   S
    N301   C281      1.29733  1_455   S
    N301   N302      1.39203  1_465   S
    C281   H102      1.09876      .   S
    C279   H100      1.08974      .   S
    C279   C280      1.39278  1_655   S
    N300   C280      1.34749      .   S
    C283   C287      1.40680      .   S
    C280   H101      1.09015  1_455   S
    H25    C158      1.08821      .   S
    C157   C158      1.38134      .   S
    C157   N291      1.35474      .   S
    N303   C286      1.35488      .   S
    C158   C154      1.40679      .   S
    C287   C286      1.38137      .   S
    C287   H107      1.08821      .   S
    N291   C156      1.34783      .   S
    C286   H106      1.08820      .   S
    H19    C151      1.09014      .   S
    N290   N289      1.39208  1_545   S
    N290   C153      1.29745      .   S
    H18    C150      1.08973      .   S
    C151   C150      1.39286      .   S
    C151   N288      1.34732      .   S
    H20    C152      1.09875      .   S
    C154   C153      1.45868      .   S
    C154   C155      1.40286      .   S
    C150   C149      1.40241      .   S
    N288   C147      1.35512      .   S
    C152   N289      1.29742      .   S
    C152   C149      1.45854      .   S
    C156   C155      1.39232      .   S
    C156   H23       1.09033      .   S
    C149   C148      1.40721      .   S
    C147   C148      1.38082      .   S
    C147   H16       1.08801      .   S
    C153   H21       1.09873      .   S
    C148   H17       1.08814      .   S
    C155   H22       1.08990      .   S
    O322   C217      1.27304      .   S
    O318   C192      1.27825      .   S
    O323   C217      1.27632      .   S
    O328   C247      1.27263      .   S
    C217   C214      1.49814      .   S
    O329   C247      1.27637      .   S
    O309   C130      1.27696      .   S
    O319   C192      1.27117      .   S
    O308   C130      1.27143      .   S
    C192   C189      1.50021      .   S
    C247   C248      1.50220      .   S
    C130   C131      1.50336      .   S
    H39    C188      1.09021  1_455   S
    H57    C213      1.08948      .   S
    C214   C213      1.40145      .   S
    C214   C215      1.40002      .   S
    C189   C188      1.40157      .   S
    C189   C190      1.39902      .   S
    H58    C215      1.08899      .   S
    C248   C249      1.39883      .   S
    C248   C124      1.40071      .   S
    C213   C212      1.39160  1_455   S
    C188   C187      1.39066  1_655   S
    H78    C249      1.08812      .   S
    H40    C190      1.08906      .   S
    H81    C124      1.08914      .   S
    C215   C216      1.39263      .   S
    C131   C132      1.39397      .   S
    C131   C136      1.40049      .   S
    H11    C136      1.08841      .   S
    H8     C132      1.08190      .   S
    C190   C191      1.39346      .   S
    C249   C250      1.39276      .   S
    C124   C252      1.39064      .   S
    F358   C185      1.35661      .   S
    C132   C133      1.40487      .   S
    C136   C135      1.38966      .   S
    F363   C210      1.35857      .   S
    C187   H38       1.08808      .   S
    C187   C186      1.40542  1_455   S
    C212   H56       1.08888      .   S
    C212   C211      1.40528  1_655   S
    C216   H59       1.08669      .   S
    C216   C211      1.40105      .   S
    F359   C185      1.36412      .   S
    F372   C126      1.36067      .   S
    C191   C186      1.40110      .   S
    C191   H41       1.08620      .   S
    F365   C210      1.36504      .   S
    F343   C138      1.35666      .   S
    C250   H79       1.08716      .   S
    C250   C251      1.40156      .   S
    C186   C183      1.54507  1_655   S
    C252   H80       1.08865      .   S
    C252   C251      1.40446      .   S
    C211   C208      1.54228  1_455   S
    C133   H9        1.08682      .   S
    C133   C134      1.40060      .   S
    C135   H10       1.08880      .   S
    C135   C134      1.40620      .   S
    F373   C126      1.36441      .   S
    F342   C138      1.36525      .   S
    C185   F357      1.36116      .   S
    C185   C183      1.56950      .   S
    C210   F364      1.35951      .   S
    C210   C208      1.56403      .   S
    C251   C125      1.54344      .   S
    C134   C137      1.54562      .   S
    C126   F374      1.36070      .   S
    C126   C125      1.56642      .   S
    C138   F344      1.36102      .   S
    C138   C137      1.56326      .   S
    C183   C184      1.56297  1_455   S
    C183   C180      1.54566      .   S
    C208   C209      1.56436  1_655   S
    C208   C205      1.54567      .   S
    F356   C184      1.36095      .   S
    F362   C209      1.36170      .   S
    C125   C127      1.56350      .   S
    C125   C128      1.54549      .   S
    F376   C127      1.36062      .   S
    C137   C139      1.56927      .   S
    C137   C140      1.54493      .   S
    F345   C139      1.36091      .   S
    C184   F354      1.36534      .   S
    C184   F355      1.35642  1_655   S
    C209   F361      1.36370      .   S
    C209   F360      1.35825      .   S
    C180   C181      1.40590      .   S
    C180   C179      1.40053      .   S
    C205   C206      1.40517      .   S
    C205   C204      1.40151      .   S
    H36    C181      1.08810  1_655   S
    H35    C179      1.08674      .   S
    H54    C206      1.08850  1_455   S
    H53    C204      1.08632      .   S
    C127   F377      1.36569      .   S
    C127   F375      1.35603      .   S
    C139   F347      1.36418      .   S
    C139   F346      1.35659      .   S
    C181   C182      1.39054      .   S
    C179   C178      1.39433      .   S
    H15    C145      1.08624      .   S
    C128   C257      1.40124      .   S
    C128   C253      1.40541      .   S
    C206   C207      1.39116      .   S
    H85    C257      1.08660      .   S
    C204   C203      1.39461      .   S
    C140   C145      1.40108      .   S
    C140   C141      1.40562      .   S
    H82    C253      1.08900      .   S
    C145   C144      1.39339      .   S
    H12    C141      1.08854      .   S
    C257   C256      1.39267      .   S
    C253   C254      1.39216      .   S
    C141   C142      1.39063      .   S
    C178   H34       1.08708      .   S
    C178   C177      1.39919      .   S
    C182   H37       1.08835      .   S
    C182   C177      1.40036      .   S
    C207   H55       1.08852      .   S
    C207   C202      1.40086      .   S
    C203   H52       1.08804      .   S
    C203   C202      1.39896      .   S
    C144   H14       1.08908      .   S
    C144   C143      1.39908      .   S
    C177   C176      1.50332      .   S
    C256   H84       1.08898      .   S
    C256   C255      1.39957      .   S
    C254   C255      1.40116      .   S
    C254   H83       1.08948      .   S
    C202   C201      1.50304      .   S
    C142   C143      1.40150      .   S
    C142   H13       1.08948      .   S
    C143   C146      1.49996      .   S
    C255   C258      1.49977      .   S
    C176   O316      1.27108      .   S
    C176   O317      1.27706      .   S
    C201   O321      1.27638      .   S
    C201   O320      1.27264      .   S
    C146   O311      1.27128      .   S
    C146   O310      1.27660      .   S
    C258   O331      1.27643      .   S
    C258   O330      1.27318      .   S
    H48    C93       1.08951      .   S
    H47    C199      1.09877      .   S
    H49    C94       1.09038  1_455   S
    C93    C94       1.39240  1_455   S
    C93    C92       1.40308  1_455   S
    H43    C194      1.08818      .   S
    C199   C92       1.45888  1_455   S
    C199   N294      1.29737  1_455   S
    C194   C195      1.40711      .   S
    C194   C193      1.38112      .   S
    H76    C245      1.08827      .   S
    C195   C198      1.45887  1_455   S
    C195   C196      1.40262  1_455   S
    C94    N295      1.34795      .   S
    H42    C193      1.08809      .   S
    C193   N292      1.35515      .   S
    N293   C198      1.29732  1_455   S
    N293   N294      1.39214  1_445   S
    C198   H46       1.09881      .   S
    C196   H44       1.08974      .   S
    C196   C197      1.39278  1_655   S
    N292   C197      1.34750      .   S
    C197   H45       1.09012      .   S
    C92    C200      1.40683      .   S
    H77    C246      1.08824      .   S
    C245   C246      1.38157      .   S
    C245   N299      1.35477      .   S
    N295   C95       1.35474      .   S
    C246   C242      1.40682      .   S
    C200   C95       1.38158      .   S
    C200   H51       1.08804      .   S
    N299   C244      1.34795      .   S
    C95    H50       1.08827      .   S
    H71    C239      1.09010      .   S
    N298   N297      1.39229  1_565   S
    N298   C241      1.29750      .   S
    C239   N296      1.34750      .   S
    C239   C238      1.39291      .   S
    C242   C241      1.45900      .   S
    C242   C243      1.40321      .   S
    N296   C235      1.35515      .   S
    H72    C240      1.09877      .   S
    H70    C238      1.08975      .   S
    C238   C237      1.40273      .   S
    C235   H68       1.08809      .   S
    C235   C236      1.38108      .   S
    C240   N297      1.29747      .   S
    C240   C237      1.45899      .   S
    C244   C243      1.39251      .   S
    C244   H75       1.09023      .   S
    C237   C236      1.40710      .   S
    C236   H69       1.08821      .   S
    C241   H73       1.09879      .   S
    C243   H74       1.08938      .   S
    O306   C129      1.27327      .   S
    O334   C275      1.27672      .   S
    O307   C129      1.27646      .   S
    O312   C159      1.27228      .   S
    C129   C121      1.49988      .   S
    O313   C159      1.27624      .   S
    O335   C275      1.27130      .   S
    O325   C218      1.27698      .   S
    C275   C272      1.50003      .   S
    O324   C218      1.27127      .   S
    C159   C160      1.50379      .   S
    C218   C219      1.50329      .   S
    H91    C271      1.08932  1_455   S
    H5     C120      1.08951      .   S
    C121   C120      1.40121      .   S
    C121   C122      1.39916      .   S
    C272   C271      1.40152      .   S
    C272   C273      1.39908      .   S
    H6     C122      1.08866      .   S
    C271   C270      1.39058  1_655   S
    C160   C161      1.39893      .   S
    C160   C165      1.40088      .   S
    C120   C119      1.39227  1_455   S
    H96    C273      1.08907      .   S
    H26    C161      1.08808      .   S
    H29    C165      1.08856      .   S
    C122   C123      1.39327      .   S
    C219   C224      1.40037      .   S
    C219   C220      1.39919      .   S
    H63    C224      1.08843      .   S
    H60    C220      1.08709      .   S
    C273   C274      1.39356      .   S
    C161   C162      1.39459      .   S
    C165   C164      1.39097      .   S
    F382   C268      1.35662      .   S
    C224   C223      1.39052      .   S
    C220   C221      1.39435      .   S
    F339   C117      1.35621      .   S
    C270   H90       1.08817      .   S
    C270   C269      1.40545  1_455   S
    C119   H4        1.08898      .   S
    C119   C118      1.40527  1_655   S
    C123   H7        1.08657      .   S
    C123   C118      1.40137      .   S
    F383   C268      1.36413      .   S
    F348   C167      1.35789      .   S
    C274   C269      1.40106      .   S
    C274   H97       1.08623      .   S
    F341   C117      1.36559      .   S
    F367   C226      1.35682      .   S
    C269   C266      1.54498  1_655   S
    C162   H27       1.08638      .   S
    C162   C163      1.40155      .   S
    C164   H28       1.08869      .   S
    C164   C163      1.40524      .   S
    C118   C115      1.54405  1_455   S
    C221   H61       1.08668      .   S
    C221   C222      1.40042      .   S
    C223   H62       1.08836      .   S
    C223   C222      1.40583      .   S
    F349   C167      1.36323      .   S
    F366   C226      1.36541      .   S
    C268   F381      1.36094      .   S
    C268   C266      1.56932      .   S
    C117   F340      1.36054      .   S
    C117   C115      1.56247      .   S
