# CIF file generated by openbabel 2.4.90, see http://openbabel.sf.net
data_I
_chemical_name_common ''
_cell_length_a 15.841
_cell_length_b 16.164
_cell_length_c 22.838
_cell_angle_alpha 90.009
_cell_angle_beta 89.993
_cell_angle_gamma 89.94
_space_group_name_H-M_alt 'P 1'
_space_group_name_Hall 'P 1'
loop_
    _symmetry_equiv_pos_as_xyz
    x,y,z
loop_
    _atom_site_label
    _atom_site_type_symbol
    _atom_site_fract_x
    _atom_site_fract_y
    _atom_site_fract_z
    _atom_site_occupancy
    Zn0     Zn   0.83312   0.44543   0.25261   1.000
    Zn1     Zn   0.18992   0.44090   0.74046   1.000
    Zn2     Zn   0.33330   0.55465   0.74754   1.000
    Zn3     Zn   0.68994   0.44092   0.75948   1.000
    Zn4     Zn   0.83334   0.55463   0.75240   1.000
    Zn5     Zn   0.18980   0.55907   0.24038   1.000
    Zn6     Zn   0.33337   0.44541   0.24740   1.000
    Zn7     Zn   0.68970   0.55916   0.25980   1.000
loop_
    _geom_bond_atom_site_label_1
    _geom_bond_atom_site_label_2
    _geom_bond_distance
    _geom_bond_site_symmetry_2
    _ccdc_geom_bond_type
    Zn7    Zn0       2.92563      .   S
    Zn1    Zn2       2.92816      .   S
    Zn3    Zn4       2.92815      .   S
    Zn5    Zn6       2.92661      .   S
