# CIF file generated by openbabel 2.4.90, see http://openbabel.sf.net
data_I
_chemical_name_common ''
_cell_length_a 15.841
_cell_length_b 16.164
_cell_length_c 22.838
_cell_angle_alpha 90.009
_cell_angle_beta 89.993
_cell_angle_gamma 89.94
_space_group_name_H-M_alt 'P 1'
_space_group_name_Hall 'P 1'
loop_
    _symmetry_equiv_pos_as_xyz
    x,y,z
loop_
    _atom_site_label
    _atom_site_type_symbol
    _atom_site_fract_x
    _atom_site_fract_y
    _atom_site_fract_z
    _atom_site_occupancy
    N0      N    0.99755   0.70563   0.99147   1.000
    N1      N    0.53398   0.28053   0.51101   1.000
    N2      N    0.01037   0.99812   0.73627   1.000
    N3      N    0.99796   0.29455   0.49074   1.000
    N4      N    0.53392   0.71937   0.01100   1.000
    N5      N    0.51030   0.99816   0.76367   1.000
    N6      N    0.03386   0.71928   0.48910   1.000
    N7      N    0.51020   0.00186   0.26407   1.000
    N8      N    0.49786   0.29462   0.00920   1.000
    N9      N    0.49792   0.70541   0.50867   1.000
    N10     N    0.03396   0.28057   0.98891   1.000
    N11     N    0.01020   0.00194   0.23612   1.000
    Zr12    Zr   0.26161   0.49778   0.74400   1.000
    O13     O    0.35052   0.65048   0.75048   1.000
    O14     O    0.17199   0.34529   0.74055   1.000
    Zr15    Zr   0.76141   0.50230   0.25620   1.000
    O16     O    0.67175   0.65473   0.25979   1.000
    O17     O    0.85039   0.34963   0.24958   1.000
    Zr18    Zr   0.26158   0.50224   0.24389   1.000
    O19     O    0.35053   0.34956   0.25048   1.000
    O20     O    0.17187   0.65472   0.24043   1.000
    Zr21    Zr   0.76164   0.49777   0.75594   1.000
    O22     O    0.85057   0.65046   0.74948   1.000
    O23     O    0.67198   0.34531   0.75938   1.000
    O24     O    0.69779   0.56086   0.82818   1.000
    O25     O    0.83909   0.43532   0.82113   1.000
    O26     O    0.82848   0.43990   0.68107   1.000
    O27     O    0.68569   0.55700   0.68710   1.000
    O28     O    0.33904   0.56467   0.17871   1.000
    O29     O    0.19778   0.43913   0.17167   1.000
    O30     O    0.18567   0.44299   0.31261   1.000
    O31     O    0.32839   0.56009   0.31865   1.000
    O32     O    0.18557   0.55704   0.81290   1.000
    O33     O    0.32843   0.43992   0.81887   1.000
    O34     O    0.33908   0.43532   0.67880   1.000
    O35     O    0.19776   0.56084   0.67181   1.000
    O36     O    0.82799   0.56035   0.18149   1.000
    O37     O    0.68553   0.44306   0.18743   1.000
    O38     O    0.69768   0.43913   0.32836   1.000
    O39     O    0.83887   0.56464   0.32143   1.000
loop_
    _geom_bond_atom_site_label_1
    _geom_bond_atom_site_label_2
    _geom_bond_distance
    _geom_bond_site_symmetry_2
    _ccdc_geom_bond_type
    Zr12   O13       2.84693      .   S
    N5     O13       6.17334      .   S
    Zr12   O14       2.84682      .   S
    N2     O14       6.17131  1_565   S
    Zr15   O16       2.84384      .   S
    N7     O16       6.16539  1_545   S
    Zr15   O17       2.84470      .   S
    N11    O17       6.16903  1_455   S
    Zr18   O19       2.84454      .   S
    N7     O19       6.16859      .   S
    Zr18   O20       2.84485      .   S
    N11    O20       6.16756  1_545   S
    Zr21   O22       2.84690      .   S
    N2     O22       6.17324  1_455   S
    Zr21   O23       2.84682      .   S
    N5     O23       6.17134  1_565   S
    Zr21   O24       2.18662      .   S
    N4     O24       5.54222  1_554   S
    Zr21   O25       2.17703      .   S
    N10    O25       5.51882  1_455   S
    Zr21   O26       2.21739      .   S
    N3     O26       5.62169      .   S
    Zr21   O27       2.19865      .   S
    N9     O27       5.58564      .   S
    Zr18   O28       2.17763      .   S
    N4     O28       5.52006      .   S
    Zr18   O29       2.18732      .   S
    N10    O29       5.54413  1_556   S
    Zr18   O30       2.19745      .   S
    N3     O30       5.58238  1_655   S
    Zr18   O31       2.21626      .   S
    N9     O31       5.61907      .   S
    Zr12   O32       2.20029      .   S
    N0     O32       5.59018  1_655   S
    Zr12   O33       2.21760      .   S
    N8     O33       5.62194  1_554   S
    Zr12   O34       2.17683      .   S
    N1     O34       5.51855      .   S
    Zr12   O35       2.18620      .   S
    N6     O35       5.54096      .   S
    N0     O36       5.61911  1_556   S
    Zr15   O36       2.21516      .   S
    N8     O37       5.58369      .   S
    Zr15   O37       2.19800      .   S
    N1     O38       5.54180      .   S
    Zr15   O38       2.18623      .   S
    N6     O39       5.51984  1_455   S
    Zr15   O39       2.17771      .   S
