# CIF file generated by openbabel 2.4.90, see http://openbabel.sf.net
data_I
_chemical_name_common ''
_cell_length_a 15.841
_cell_length_b 16.164
_cell_length_c 22.838
_cell_angle_alpha 90.009
_cell_angle_beta 89.993
_cell_angle_gamma 89.94
_space_group_name_H-M_alt 'P 1'
_space_group_name_Hall 'P 1'
loop_
    _symmetry_equiv_pos_as_xyz
    x,y,z
loop_
    _atom_site_label
    _atom_site_type_symbol
    _atom_site_fract_x
    _atom_site_fract_y
    _atom_site_fract_z
    _atom_site_occupancy
    N0      N    0.99755   0.70563   0.99147   1.000
    N1      N    0.53398   0.28053   0.51101   1.000
    N2      N    0.01037   0.99812   0.73627   1.000
    N3      N    0.99796   0.29455   0.49074   1.000
    N4      N    0.53392   0.71937   0.01100   1.000
    N5      N    0.51030   0.99816   0.76367   1.000
    N6      N    0.03386   0.71928   0.48910   1.000
    N7      N    0.51020   0.00186   0.26407   1.000
    N8      N    0.49786   0.29462   0.00920   1.000
    N9      N    0.49792   0.70541   0.50867   1.000
    N10     N    0.03396   0.28057   0.98891   1.000
    N11     N    0.01020   0.00194   0.23612   1.000
    Zr12    Zr   0.26161   0.49778   0.74400   1.000
    O13     O    0.20096   0.57020   0.81276   1.000
    O14     O    0.35052   0.65048   0.75048   1.000
    O15     O    0.34368   0.45314   0.82024   1.000
    O16     O    0.35551   0.44702   0.68032   1.000
    O17     O    0.21447   0.57232   0.67182   1.000
    O18     O    0.17018   0.54389   0.81303   1.000
    O19     O    0.32265   0.42361   0.67728   1.000
    O20     O    0.31318   0.42670   0.81750   1.000
    O21     O    0.17199   0.34529   0.74055   1.000
    O22     O    0.18105   0.54937   0.67180   1.000
    Zr23    Zr   0.76141   0.50230   0.25620   1.000
    O24     O    0.81285   0.57367   0.18293   1.000
    O25     O    0.68094   0.45059   0.32836   1.000
    O26     O    0.67016   0.45624   0.18727   1.000
    O27     O    0.82240   0.57626   0.32305   1.000
    O28     O    0.67175   0.65473   0.25979   1.000
    O29     O    0.84313   0.54702   0.18004   1.000
    O30     O    0.70089   0.42988   0.18759   1.000
    O31     O    0.85534   0.55301   0.31980   1.000
    O32     O    0.85039   0.34963   0.24958   1.000
    O33     O    0.71441   0.42767   0.32836   1.000
    Zr34    Zr   0.26158   0.50224   0.24389   1.000
    O35     O    0.35549   0.55297   0.18023   1.000
    O36     O    0.21451   0.42766   0.17167   1.000
    O37     O    0.34367   0.54688   0.32002   1.000
    O38     O    0.20109   0.42985   0.31246   1.000
    O39     O    0.35053   0.34956   0.25048   1.000
    O40     O    0.32259   0.57636   0.17719   1.000
    O41     O    0.18104   0.45060   0.17167   1.000
    O42     O    0.17025   0.45614   0.31276   1.000
    O43     O    0.31311   0.57331   0.31729   1.000
    O44     O    0.17187   0.65472   0.24043   1.000
    Zr45    Zr   0.76164   0.49777   0.75594   1.000
    O46     O    0.71451   0.57233   0.82817   1.000
    O47     O    0.85552   0.44702   0.81961   1.000
    O48     O    0.85057   0.65046   0.74948   1.000
    O49     O    0.70108   0.57015   0.68724   1.000
    O50     O    0.84373   0.45312   0.67970   1.000
    O51     O    0.82265   0.42362   0.82266   1.000
    O52     O    0.68108   0.54939   0.82819   1.000
    O53     O    0.67030   0.54385   0.68696   1.000
    O54     O    0.67198   0.34531   0.75938   1.000
    O55     O    0.81323   0.42668   0.68244   1.000
loop_
    _geom_bond_atom_site_label_1
    _geom_bond_atom_site_label_2
    _geom_bond_distance
    _geom_bond_site_symmetry_2
    _ccdc_geom_bond_type
    Zr12   O13       2.18090      .   S
    N0     O13       5.64012  1_655   S
    Zr12   O14       2.84693      .   S
    N5     O14       6.17334      .   S
    Zr12   O15       2.28940      .   S
    N8     O15       5.58093  1_554   S
    Zr12   O16       2.23533      .   S
    N1     O16       5.49228      .   S
    Zr12   O17       2.17395      .   S
    N6     O17       5.58865      .   S
    Zr12   O18       2.26621      .   S
    N0     O18       5.55867  1_655   S
    Zr12   O19       2.16569      .   S
    N1     O19       5.56358      .   S
    Zr12   O20       2.19189      .   S
    N8     O20       5.68118  1_554   S
    Zr12   O21       2.84682      .   S
    N2     O21       6.17131  1_565   S
    Zr12   O22       2.24545      .   S
    N6     O22       5.51187      .   S
    Zr23   O24       2.19041      .   S
    N0     O24       5.67815  1_556   S
    Zr23   O25       2.24529      .   S
    N1     O25       5.51275      .   S
    Zr23   O26       2.26375      .   S
    N8     O26       5.55223      .   S
    Zr23   O27       2.16699      .   S
    N6     O27       5.56434  1_455   S
    Zr23   O28       2.84384      .   S
    N7     O28       6.16539  1_545   S
    Zr23   O29       2.28597      .   S
    N0     O29       5.57827  1_556   S
    Zr23   O30       2.17876      .   S
    N8     O30       5.63356      .   S
    Zr23   O31       2.23567      .   S
    N6     O31       5.49405  1_455   S
    Zr23   O32       2.84470      .   S
    N11    O32       6.16903  1_455   S
    Zr23   O33       2.17413      .   S
    N1     O33       5.58942      .   S
    Zr34   O35       2.23635      .   S
    N4     O35       5.49352      .   S
    Zr34   O36       2.17504      .   S
    N10    O36       5.59184  1_556   S
    Zr34   O37       2.28834      .   S
    N9     O37       5.57773      .   S
    Zr34   O38       2.17769      .   S
    N3     O38       5.63276  1_655   S
    Zr34   O39       2.84454      .   S
    N7     O39       6.16859      .   S
    Zr34   O40       2.16620      .   S
    N4     O40       5.56533      .   S
    Zr34   O41       2.24656      .   S
    N10    O41       5.51500  1_556   S
    Zr34   O42       2.26375      .   S
    N3     O42       5.55042  1_655   S
    Zr34   O43       2.19028      .   S
    N9     O43       5.67865      .   S
    Zr34   O44       2.84485      .   S
    N11    O44       6.16756  1_545   S
    Zr45   O46       2.17436      .   S
    N4     O46       5.58989  1_554   S
    Zr45   O47       2.23554      .   S
    N10    O47       5.49250  1_455   S
    Zr45   O48       2.84690      .   S
    N2     O48       6.17324  1_455   S
    Zr45   O49       2.17922      .   S
    N9     O49       5.63569      .   S
    Zr45   O50       2.28921      .   S
    N3     O50       5.58068      .   S
    Zr45   O51       2.16587      .   S
    N10    O51       5.56389  1_455   S
    Zr45   O52       2.24587      .   S
    N4     O52       5.51314  1_554   S
    Zr45   O53       2.26464      .   S
    N9     O53       5.55403      .   S
    Zr45   O54       2.84682      .   S
    N5     O54       6.17134  1_565   S
    Zr45   O55       2.19167      .   S
    N3     O55       5.68094      .   S
