# CIF file generated by openbabel 2.4.90, see http://openbabel.sf.net
data_I
_chemical_name_common ''
_cell_length_a 15.841
_cell_length_b 16.164
_cell_length_c 22.838
_cell_angle_alpha 90.009
_cell_angle_beta 89.993
_cell_angle_gamma 89.94
_space_group_name_H-M_alt 'P 1'
_space_group_name_Hall 'P 1'
loop_
    _symmetry_equiv_pos_as_xyz
    x,y,z
loop_
    _atom_site_label
    _atom_site_type_symbol
    _atom_site_fract_x
    _atom_site_fract_y
    _atom_site_fract_z
    _atom_site_occupancy
    C0      C    0.68970   0.55916   0.25980   1.000
    C1      C    0.83312   0.44543   0.25261   1.000
    C2      C    0.18992   0.44090   0.74046   1.000
    C3      C    0.33330   0.55465   0.74754   1.000
    C4      C    0.68994   0.44092   0.75948   1.000
    C5      C    0.83334   0.55463   0.75240   1.000
    C6      C    0.18980   0.55907   0.24038   1.000
    C7      C    0.33337   0.44541   0.24740   1.000
    C8      C    0.77091   0.71673   0.11857   1.000
    C9      C    0.83466   0.80590   0.04318   1.000
    C10     C    0.05456   0.64776   0.04092   1.000
    C11     C    0.98953   0.56004   0.11708   1.000
    C12     C    0.93529   0.65243   0.93470   1.000
    C13     C    0.00341   0.56348   0.86070   1.000
    C14     C    0.22790   0.71174   0.87037   1.000
    C15     C    0.16045   0.80262   0.94317   1.000
    C16     C    0.76453   0.28550   0.39073   1.000
    C17     C    0.70383   0.18682   0.46137   1.000
    C18     C    0.47357   0.33011   0.46349   1.000
    C19     C    0.53430   0.42519   0.39033   1.000
    C20     C    0.59690   0.32686   0.57263   1.000
    C21     C    0.52163   0.41856   0.64109   1.000
    C22     C    0.29601   0.27442   0.61874   1.000
    C23     C    0.37177   0.17844   0.55376   1.000
    C24     C    0.73089   0.73017   0.27063   1.000
    C25     C    0.66161   0.87036   0.27300   1.000
    C26     C    0.42135   0.74475   0.26370   1.000
    C27     C    0.49974   0.61106   0.26048   1.000
    C28     C    0.42325   0.89976   0.26407   1.000
    C29     C    0.59365   0.10347   0.28068   1.000
    C30     C    0.59432   0.25796   0.28647   1.000
    C31     C    0.51893   0.39235   0.27510   1.000
    C32     C    0.29525   0.27465   0.23101   1.000
    C33     C    0.36215   0.13397   0.24038   1.000
    C34     C    0.27105   0.28564   0.88269   1.000
    C35     C    0.33420   0.19587   0.95799   1.000
    C36     C    0.55523   0.35205   0.96020   1.000
    C37     C    0.49092   0.44021   0.88398   1.000
    C38     C    0.43504   0.34706   0.06634   1.000
    C39     C    0.50322   0.43628   0.14008   1.000
    C40     C    0.72786   0.28774   0.13048   1.000
    C41     C    0.66036   0.19662   0.05783   1.000
    C42     C    0.26450   0.71390   0.60921   1.000
    C43     C    0.20391   0.81264   0.53848   1.000
    C44     C    0.97353   0.67003   0.53653   1.000
    C45     C    0.03413   0.57490   0.60976   1.000
    C46     C    0.09699   0.67316   0.42700   1.000
    C47     C    0.02149   0.58118   0.35900   1.000
    C48     C    0.79553   0.72500   0.38225   1.000
    C49     C    0.87151   0.82134   0.44667   1.000
    C50     C    0.23151   0.26936   0.73259   1.000
    C51     C    0.16228   0.12929   0.72995   1.000
    C52     C    0.92182   0.25554   0.73450   1.000
    C53     C    0.00010   0.38906   0.73832   1.000
    C54     C    0.92359   0.10061   0.73497   1.000
    C55     C    0.09374   0.89621   0.72015   1.000
    C56     C    0.09441   0.74184   0.71428   1.000
    C57     C    0.01900   0.60758   0.72531   1.000
    C58     C    0.79477   0.72563   0.76819   1.000
    C59     C    0.86165   0.86621   0.75900   1.000
    C60     C    0.77110   0.28567   0.61724   1.000
    C61     C    0.83428   0.19587   0.54195   1.000
    C62     C    0.05528   0.35207   0.53971   1.000
    C63     C    0.99096   0.44026   0.61595   1.000
    C64     C    0.93518   0.34689   0.43356   1.000
    C65     C    0.00337   0.43596   0.35975   1.000
    C66     C    0.22803   0.28748   0.36945   1.000
    C67     C    0.16048   0.19645   0.44214   1.000
    C68     C    0.76449   0.71386   0.89078   1.000
    C69     C    0.70390   0.81263   0.96152   1.000
    C70     C    0.47348   0.67004   0.96347   1.000
    C71     C    0.53411   0.57489   0.89020   1.000
    C72     C    0.59698   0.67319   0.07285   1.000
    C73     C    0.52166   0.58144   0.14110   1.000
    C74     C    0.29577   0.72552   0.11836   1.000
    C75     C    0.37156   0.82153   0.05357   1.000
    C76     C    0.73149   0.26936   0.76689   1.000
    C77     C    0.66224   0.12931   0.76956   1.000
    C78     C    0.42177   0.25560   0.76563   1.000
    C79     C    0.50008   0.38912   0.76174   1.000
    C80     C    0.42351   0.10067   0.76512   1.000
    C81     C    0.59370   0.89626   0.77966   1.000
    C82     C    0.59439   0.74189   0.78550   1.000
    C83     C    0.51897   0.60763   0.77450   1.000
    C84     C    0.29455   0.72567   0.73215   1.000
    C85     C    0.36144   0.86625   0.74124   1.000
    C86     C    0.27107   0.71498   0.38201   1.000
    C87     C    0.33451   0.80488   0.45715   1.000
    C88     C    0.55549   0.64817   0.45923   1.000
    C89     C    0.49090   0.55991   0.38310   1.000
    C90     C    0.43542   0.65264   0.56545   1.000
    C91     C    0.50355   0.56370   0.63943   1.000
    C92     C    0.72808   0.71191   0.62970   1.000
    C93     C    0.66062   0.80279   0.55691   1.000
    C94     C    0.26446   0.28560   0.10926   1.000
    C95     C    0.20374   0.18685   0.03867   1.000
    C96     C    0.97361   0.33029   0.03641   1.000
    C97     C    0.03436   0.42550   0.10940   1.000
    C98     C    0.09686   0.32682   0.92720   1.000
    C99     C    0.02158   0.41846   0.85882   1.000
    C100    C    0.79597   0.27435   0.88125   1.000
    C101    C    0.87173   0.17844   0.94625   1.000
    C102    C    0.23105   0.73029   0.23052   1.000
    C103    C    0.16172   0.87046   0.22797   1.000
    C104    C    0.92147   0.74475   0.23656   1.000
    C105    C    0.99986   0.61113   0.24012   1.000
    C106    C    0.92329   0.89977   0.23602   1.000
    C107    C    0.09363   0.10354   0.21944   1.000
    C108    C    0.09428   0.25804   0.21352   1.000
    C109    C    0.01892   0.39243   0.22479   1.000
    C110    C    0.79501   0.27477   0.26843   1.000
    C111    C    0.86194   0.13409   0.25919   1.000
    C112    C    0.83627   0.57991   0.16946   1.000
    C113    C    0.87536   0.63225   0.12230   1.000
    C114    C    0.83297   0.70196   0.10100   1.000
    C115    C    0.86944   0.75199   0.05822   1.000
    C116    C    0.94949   0.73314   0.03570   1.000
    C117    C    0.99213   0.66338   0.05750   1.000
    C118    C    0.95555   0.61347   0.10010   1.000
    C119    C    0.99591   0.78783   0.99057   1.000
    C120    C    0.05667   0.84438   0.02702   1.000
    C121    C    0.93577   0.84528   0.95466   1.000
    C122    C    0.04278   0.73379   0.94524   1.000
    C123    C    0.99951   0.66624   0.92081   1.000
    C124    C    0.03791   0.61544   0.87937   1.000
    C125    C    0.12084   0.63133   0.86127   1.000
    C126    C    0.16358   0.69943   0.88470   1.000
    C127    C    0.12510   0.75034   0.92610   1.000
    C128    C    0.16443   0.57697   0.81743   1.000
    C129    C    0.69204   0.41906   0.34137   1.000
    C130    C    0.65400   0.36185   0.38604   1.000
    C131    C    0.70049   0.29423   0.40600   1.000
    C132    C    0.66588   0.23906   0.44700   1.000
    C133    C    0.58404   0.25149   0.46850   1.000
    C134    C    0.53733   0.31923   0.44740   1.000
    C135    C    0.57154   0.37345   0.40660   1.000
    C136    C    0.54071   0.19337   0.51302   1.000
    C137    C    0.48303   0.13433   0.47647   1.000
    C138    C    0.60461   0.13957   0.54921   1.000
    C139    C    0.49029   0.24583   0.55750   1.000
    C140    C    0.53130   0.31373   0.58332   1.000
    C141    C    0.48870   0.36637   0.62139   1.000
    C142    C    0.40316   0.35300   0.63383   1.000
    C143    C    0.36255   0.28454   0.60915   1.000
    C144    C    0.40572   0.23084   0.57194   1.000
    C145    C    0.35505   0.41065   0.67306   1.000
    C146    C    0.66262   0.73723   0.26914   1.000
    C147    C    0.62430   0.81398   0.27057   1.000
    C148    C    0.53569   0.81896   0.26800   1.000
    C149    C    0.49010   0.74473   0.26531   1.000
    C150    C    0.53334   0.66968   0.26389   1.000
    C151    C    0.49249   0.89868   0.26689   1.000
    C152    C    0.52596   0.10471   0.27024   1.000
    C153    C    0.48382   0.18455   0.26432   1.000
    C154    C    0.52799   0.25853   0.27380   1.000
    C155    C    0.48628   0.33391   0.26775   1.000
    C156    C    0.36127   0.26718   0.24310   1.000
    C157    C    0.39823   0.19010   0.24837   1.000
    C158    C    0.33783   0.42140   0.83120   1.000
    C159    C    0.37624   0.36903   0.87867   1.000
    C160    C    0.33327   0.29984   0.90017   1.000
    C161    C    0.36940   0.24945   0.94295   1.000
    C162    C    0.44965   0.26747   0.96539   1.000
    C163    C    0.49269   0.33695   0.94362   1.000
    C164    C    0.45651   0.38713   0.90097   1.000
    C165    C    0.49626   0.21212   0.01015   1.000
    C166    C    0.55709   0.15643   0.97310   1.000
    C167    C    0.43616   0.15385   0.04551   1.000
    C168    C    0.54270   0.26567   0.05581   1.000
    C169    C    0.49929   0.33326   0.08021   1.000
    C170    C    0.53772   0.38419   0.12148   1.000
    C171    C    0.62073   0.36830   0.13940   1.000
    C172    C    0.66350   0.30002   0.11610   1.000
    C173    C    0.62502   0.24899   0.07491   1.000
    C174    C    0.66441   0.42291   0.18296   1.000
    C175    C    0.19191   0.58073   0.65871   1.000
    C176    C    0.15389   0.63791   0.61398   1.000
    C177    C    0.20044   0.70535   0.59326   1.000
    C178    C    0.16591   0.76055   0.55290   1.000
    C179    C    0.08404   0.74834   0.53144   1.000
    C180    C    0.03728   0.68074   0.55254   1.000
    C181    C    0.07142   0.62650   0.59345   1.000
    C182    C    0.04072   0.80657   0.48694   1.000
    C183    C    0.98304   0.86565   0.52353   1.000
    C184    C    0.10459   0.86036   0.45078   1.000
    C185    C    0.99027   0.75413   0.44253   1.000
    C186    C    0.03127   0.68620   0.41665   1.000
    C187    C    0.98853   0.63338   0.37884   1.000
    C188    C    0.90284   0.64658   0.36674   1.000
    C189    C    0.86220   0.71504   0.39152   1.000
    C190    C    0.90551   0.76895   0.42843   1.000
    C191    C    0.85461   0.58898   0.32761   1.000
    C192    C    0.16319   0.26247   0.73302   1.000
    C193    C    0.12491   0.18578   0.73140   1.000
    C194    C    0.03623   0.18099   0.73232   1.000
    C195    C    0.99061   0.25537   0.73408   1.000
    C196    C    0.03380   0.33034   0.73577   1.000
    C197    C    0.99290   0.10140   0.73321   1.000
    C198    C    0.02592   0.89521   0.73022   1.000
    C199    C    0.98365   0.81546   0.73582   1.000
    C200    C    0.02793   0.74139   0.72653   1.000
    C201    C    0.98624   0.66607   0.73249   1.000
    C202    C    0.86092   0.73299   0.75644   1.000
    C203    C    0.89787   0.81003   0.75129   1.000
    C204    C    0.83787   0.42142   0.66871   1.000
    C205    C    0.87629   0.36906   0.62127   1.000
    C206    C    0.83332   0.29987   0.59976   1.000
    C207    C    0.86947   0.24946   0.55698   1.000
    C208    C    0.94973   0.26747   0.53455   1.000
    C209    C    0.99275   0.33696   0.55630   1.000
    C210    C    0.95655   0.38717   0.59896   1.000
    C211    C    0.99639   0.21207   0.48984   1.000
    C212    C    0.05714   0.15640   0.52682   1.000
    C213    C    0.93634   0.15379   0.45448   1.000
    C214    C    0.04285   0.26553   0.44415   1.000
    C215    C    0.99944   0.33307   0.41970   1.000
    C216    C    0.03785   0.38390   0.37839   1.000
    C217    C    0.12089   0.36802   0.36040   1.000
    C218    C    0.16366   0.29977   0.38378   1.000
    C219    C    0.12516   0.24881   0.42504   1.000
    C220    C    0.16453   0.42276   0.31700   1.000
    C221    C    0.69192   0.58070   0.84127   1.000
    C222    C    0.65388   0.63790   0.88600   1.000
    C223    C    0.70043   0.70533   0.90673   1.000
    C224    C    0.66589   0.76054   0.94710   1.000
    C225    C    0.58402   0.74833   0.96855   1.000
    C226    C    0.53725   0.68074   0.94745   1.000
    C227    C    0.57140   0.62649   0.90653   1.000
    C228    C    0.54070   0.80658   0.01306   1.000
    C229    C    0.48303   0.86566   0.97646   1.000
    C230    C    0.60458   0.86037   0.04921   1.000
    C231    C    0.49026   0.75422   0.05754   1.000
    C232    C    0.53131   0.68631   0.08341   1.000
    C233    C    0.48867   0.63363   0.12138   1.000
    C234    C    0.40304   0.64696   0.13367   1.000
    C235    C    0.36238   0.71542   0.10892   1.000
    C236    C    0.40558   0.76915   0.07182   1.000
    C237    C    0.35496   0.58934   0.17288   1.000
    C238    C    0.66317   0.26249   0.76661   1.000
    C239    C    0.62487   0.18580   0.76820   1.000
    C240    C    0.53619   0.18103   0.76750   1.000
    C241    C    0.49057   0.25542   0.76590   1.000
    C242    C    0.53378   0.33039   0.76418   1.000
    C243    C    0.49283   0.10145   0.76670   1.000
    C244    C    0.52585   0.89526   0.76972   1.000
    C245    C    0.48354   0.81551   0.76421   1.000
    C246    C    0.52788   0.74144   0.77340   1.000
    C247    C    0.48616   0.66611   0.76748   1.000
    C248    C    0.36074   0.73303   0.74378   1.000
    C249    C    0.39770   0.81007   0.74891   1.000
    C250    C    0.33761   0.57869   0.33095   1.000
    C251    C    0.37621   0.63132   0.37807   1.000
    C252    C    0.33332   0.70072   0.39945   1.000
    C253    C    0.36960   0.75115   0.44200   1.000
    C254    C    0.44985   0.73289   0.46440   1.000
    C255    C    0.49291   0.66335   0.44270   1.000
    C256    C    0.45659   0.61312   0.40018   1.000
    C257    C    0.49606   0.78784   0.50940   1.000
    C258    C    0.55679   0.84437   0.47299   1.000
    C259    C    0.43579   0.84529   0.54532   1.000
    C260    C    0.54295   0.73396   0.55489   1.000
    C261    C    0.49964   0.66644   0.57934   1.000
    C262    C    0.53805   0.61566   0.62076   1.000
    C263    C    0.62100   0.63153   0.63882   1.000
    C264    C    0.66374   0.69962   0.61535   1.000
    C265    C    0.62527   0.75052   0.57400   1.000
    C266    C    0.66455   0.57710   0.68261   1.000
    C267    C    0.19203   0.41925   0.15856   1.000
    C268    C    0.15398   0.36204   0.11380   1.000
    C269    C    0.20043   0.29434   0.09328   1.000
    C270    C    0.16582   0.23913   0.05299   1.000
    C271    C    0.08399   0.25157   0.03147   1.000
    C272    C    0.03733   0.31939   0.05246   1.000
    C273    C    0.07156   0.37367   0.09328   1.000
    C274    C    0.04068   0.19340   0.98695   1.000
    C275    C    0.98303   0.13434   0.02350   1.000
    C276    C    0.10460   0.13959   0.95076   1.000
    C277    C    0.99026   0.24581   0.94246   1.000
    C278    C    0.03125   0.31368   0.91661   1.000
    C279    C    0.98866   0.36630   0.87854   1.000
    C280    C    0.90311   0.35292   0.86612   1.000
    C281    C    0.86251   0.28449   0.89083   1.000
    C282    C    0.90568   0.23082   0.92805   1.000
    C283    C    0.85501   0.41057   0.82690   1.000
    C284    C    0.16276   0.73733   0.23186   1.000
    C285    C    0.12442   0.81406   0.23032   1.000
    C286    C    0.03578   0.81902   0.23237   1.000
    C287    C    0.99023   0.74477   0.23519   1.000
    C288    C    0.03348   0.66974   0.23675   1.000
    C289    C    0.99254   0.89872   0.23340   1.000
    C290    C    0.02589   0.10478   0.22973   1.000
    C291    C    0.98372   0.18464   0.23548   1.000
    C292    C    0.02790   0.25862   0.22601   1.000
    C293    C    0.98621   0.33401   0.23208   1.000
    C294    C    0.86108   0.26730   0.25647   1.000
    C295    C    0.89806   0.19021   0.25126   1.000
    C296    C    0.61827   0.66577   0.26559   1.000
    C297    C    0.53549   0.96693   0.26778   1.000
    C298    C    0.48411   0.03652   0.26293   1.000
    C299    C    0.40412   0.33838   0.25272   1.000
    C300    C    0.11877   0.33409   0.73537   1.000
    C301    C    0.03576   0.03296   0.73311   1.000
    C302    C    0.98417   0.96356   0.73744   1.000
    C303    C    0.90393   0.66171   0.74713   1.000
    C304    C    0.61875   0.33412   0.76443   1.000
    C305    C    0.53569   0.03301   0.76677   1.000
    C306    C    0.48407   0.96360   0.76256   1.000
    C307    C    0.40380   0.66175   0.75297   1.000
    C308    C    0.11843   0.66583   0.23523   1.000
    C309    C    0.03548   0.96701   0.23246   1.000
    C310    C    0.98406   0.03660   0.23705   1.000
    C311    C    0.90399   0.33851   0.24697   1.000
    C312    C    0.77239   0.60980   0.19588   1.000
    C313    C    0.87114   0.51030   0.17996   1.000
    C314    C    0.23279   0.60457   0.79561   1.000
    C315    C    0.12999   0.50785   0.80487   1.000
    C316    C    0.76854   0.40568   0.32739   1.000
    C317    C    0.64424   0.47529   0.32026   1.000
    C318    C    0.39635   0.46936   0.69703   1.000
    C319    C    0.27684   0.39583   0.67977   1.000
    C320    C    0.27334   0.39232   0.80518   1.000
    C321    C    0.37396   0.49013   0.81999   1.000
    C322    C    0.73267   0.39516   0.20488   1.000
    C323    C    0.63019   0.49235   0.19516   1.000
    C324    C    0.26829   0.59424   0.67280   1.000
    C325    C    0.14428   0.52437   0.67971   1.000
    C326    C    0.89620   0.53093   0.30280   1.000
    C327    C    0.77615   0.60321   0.32160   1.000
    C328    C    0.77339   0.39234   0.69477   1.000
    C329    C    0.87399   0.49016   0.67997   1.000
    C330    C    0.23308   0.39537   0.29526   1.000
    C331    C    0.12998   0.49197   0.30469   1.000
    C332    C    0.76831   0.59418   0.82717   1.000
    C333    C    0.64428   0.52435   0.82026   1.000
    C334    C    0.39636   0.53063   0.19689   1.000
    C335    C    0.27673   0.60416   0.17961   1.000
    C336    C    0.27288   0.60761   0.30503   1.000
    C337    C    0.37383   0.50988   0.31984   1.000
    C338    C    0.73293   0.60465   0.70443   1.000
    C339    C    0.63007   0.50799   0.69512   1.000
    C340    C    0.26847   0.40578   0.17261   1.000
    C341    C    0.14429   0.47560   0.17962   1.000
    C342    C    0.89634   0.46925   0.80291   1.000
    C343    C    0.77680   0.39578   0.82019   1.000
    C344    C    0.01544   0.88129   0.07230   1.000
    C345    C    0.12106   0.79891   0.05020   1.000
    C346    C    0.09251   0.90608   0.99500   1.000
    C347    C    0.97760   0.88221   0.90994   1.000
    C348    C    0.90001   0.90627   0.98742   1.000
    C349    C    0.87088   0.80180   0.93017   1.000
    C350    C    0.41870   0.17687   0.45043   1.000
    C351    C    0.52627   0.09702   0.43249   1.000
    C352    C    0.44814   0.07336   0.50965   1.000
    C353    C    0.64418   0.08000   0.51722   1.000
    C354    C    0.56642   0.10085   0.59475   1.000
    C355    C    0.66668   0.18785   0.57254   1.000
    C356    C    0.51534   0.12130   0.92753   1.000
    C357    C    0.62180   0.20139   0.95001   1.000
    C358    C    0.59247   0.09390   0.00475   1.000
    C359    C    0.47748   0.11513   0.08985   1.000
    C360    C    0.39995   0.09372   0.01236   1.000
    C361    C    0.37160   0.19788   0.07009   1.000
    C362    C    0.91874   0.82317   0.54957   1.000
    C363    C    0.02624   0.90294   0.56748   1.000
    C364    C    0.94812   0.92665   0.49033   1.000
    C365    C    0.14410   0.91990   0.48276   1.000
    C366    C    0.06637   0.89913   0.40524   1.000
    C367    C    0.16670   0.81206   0.42740   1.000
    C368    C    0.01534   0.12129   0.57240   1.000
    C369    C    0.12183   0.20138   0.54997   1.000
    C370    C    0.09250   0.09388   0.49523   1.000
    C371    C    0.97757   0.11501   0.41010   1.000
    C372    C    0.89997   0.09374   0.48762   1.000
    C373    C    0.87199   0.19795   0.42986   1.000
    C374    C    0.41873   0.82317   0.95042   1.000
    C375    C    0.52625   0.90293   0.93249   1.000
    C376    C    0.44810   0.92666   0.00967   1.000
    C377    C    0.64411   0.91990   0.01720   1.000
    C378    C    0.56638   0.89915   0.09476   1.000
    C379    C    0.66669   0.81208   0.07255   1.000
    C380    C    0.51550   0.88118   0.42770   1.000
    C381    C    0.62126   0.79895   0.44976   1.000
    C382    C    0.59254   0.90612   0.50497   1.000
    C383    C    0.47758   0.88225   0.59004   1.000
    C384    C    0.40001   0.90624   0.51254   1.000
    C385    C    0.37090   0.80180   0.56980   1.000
    C386    C    0.91869   0.17688   0.04957   1.000
    C387    C    0.02626   0.09703   0.06749   1.000
    C388    C    0.94816   0.07337   0.99032   1.000
    C389    C    0.14416   0.08003   0.98274   1.000
    C390    C    0.06641   0.10086   0.90522   1.000
    C391    C    0.16668   0.18785   0.92743   1.000
    O392    O    0.57478   0.12516   0.98892   1.000
    O393    O    0.46556   0.89616   0.99306   1.000
    O394    O    0.46621   0.18298   0.02783   1.000
    O395    O    0.51948   0.23889   0.03298   1.000
    O396    O    0.47295   0.23980   0.98777   1.000
    O397    O    0.52668   0.18427   0.99162   1.000
    O398    O    0.41806   0.12379   0.02893   1.000
    O399    O    0.57264   0.83348   0.03113   1.000
    O400    O    0.51548   0.78040   0.03530   1.000
    O401    O    0.56236   0.77746   0.99080   1.000
    O402    O    0.51186   0.83612   0.99476   1.000
    O403    O    0.62435   0.89014   0.03320   1.000
    O404    O    0.95086   0.15561   0.03653   1.000
    O405    O    0.00465   0.11569   0.04549   1.000
    O406    O    0.01186   0.16387   0.00522   1.000
    O407    O    0.96560   0.10386   0.00691   1.000
    O408    O    0.08887   0.82164   0.03861   1.000
    O409    O    0.03606   0.86283   0.04966   1.000
    O410    O    0.02629   0.81610   0.00879   1.000
    O411    O    0.07459   0.87523   0.01101   1.000
    O412    O    0.06066   0.28548   0.04196   1.000
    O413    O    0.12490   0.24535   0.04223   1.000
    O414    O    0.06234   0.22248   0.00921   1.000
    O415    O    0.97081   0.69826   0.04660   1.000
    O416    O    0.90947   0.74257   0.04696   1.000
    O417    O    0.97270   0.76048   0.01313   1.000
    O418    O    0.00547   0.32484   0.04443   1.000
    O419    O    0.18478   0.21299   0.04583   1.000
    O420    O    0.02335   0.65557   0.04921   1.000
    O421    O    0.85205   0.77894   0.05070   1.000
    O422    O    0.40388   0.17586   0.05780   1.000
    O423    O    0.45682   0.13449   0.06768   1.000
    O424    O    0.63564   0.83622   0.06088   1.000
    O425    O    0.58548   0.87976   0.07198   1.000
    O426    O    0.05444   0.34653   0.07287   1.000
    O427    O    0.18312   0.26674   0.07314   1.000
    O428    O    0.38857   0.79534   0.06270   1.000
    O429    O    0.58386   0.25733   0.06536   1.000
    O430    O    0.52099   0.29946   0.06801   1.000
    O431    O    0.97384   0.63843   0.07880   1.000
    O432    O    0.44792   0.76168   0.06468   1.000
    O433    O    0.51078   0.72026   0.07047   1.000
    O434    O    0.64269   0.22280   0.06637   1.000
    O435    O    0.85121   0.72697   0.07961   1.000
    O436    O    0.46716   0.34016   0.07327   1.000
    O437    O    0.38398   0.74229   0.09037   1.000
    O438    O    0.56414   0.67975   0.07813   1.000
    O439    O    0.64426   0.27450   0.09550   1.000
    O440    O    0.51850   0.35872   0.10085   1.000
    O441    O    0.50999   0.65997   0.10239   1.000
    O442    O    0.23244   0.28997   0.10127   1.000
    O443    O    0.17721   0.32819   0.10354   1.000
    O444    O    0.05296   0.39958   0.10134   1.000
    O445    O    0.11277   0.36785   0.10354   1.000
    O446    O    0.97254   0.58676   0.10859   1.000
    O447    O    0.91545   0.62286   0.11120   1.000
    O448    O    0.80194   0.70934   0.10979   1.000
    O449    O    0.85417   0.66711   0.11165   1.000
    O450    O    0.32907   0.72047   0.11364   1.000
    O451    O    0.38271   0.68119   0.12129   1.000
    O452    O    0.17301   0.39064   0.13618   1.000
    O453    O    0.69568   0.29388   0.12329   1.000
    O454    O    0.64212   0.33416   0.12775   1.000
    O455    O    0.44585   0.64030   0.12752   1.000
    O456    O    0.50516   0.60754   0.13124   1.000
    O457    O    0.57922   0.37624   0.13044   1.000
    O458    O    0.52047   0.41023   0.13078   1.000
    O459    O    0.85582   0.60608   0.14588   1.000
    O460    O    0.37900   0.61815   0.15327   1.000
    O461    O    0.64257   0.39561   0.16118   1.000
    O462    O    0.23025   0.41252   0.16559   1.000
    O463    O    0.16816   0.44743   0.16909   1.000
    O464    O    0.85371   0.54511   0.17471   1.000
    O465    O    0.80433   0.59486   0.18267   1.000
    O466    O    0.30092   0.42559   0.21000   1.000
    O467    O    0.31584   0.59675   0.17624   1.000
    O468    O    0.37566   0.55998   0.18488   1.000
    O469    O    0.23326   0.58161   0.20999   1.000
    O470    O    0.16705   0.51734   0.21000   1.000
    O471    O    0.85213   0.47787   0.21628   1.000
    O472    O    0.64730   0.45763   0.18906   1.000
    O473    O    0.69854   0.40904   0.19392   1.000
    O474    O    0.65994   0.52575   0.22748   1.000
    O475    O    0.73104   0.58448   0.22784   1.000
    O476    O    0.36486   0.48802   0.22214   1.000
    O477    O    0.78290   0.42030   0.22874   1.000
    O478    O    0.06109   0.25833   0.21976   1.000
    O479    O    0.05976   0.10416   0.22458   1.000
    O480    O    0.00256   0.36322   0.22843   1.000
    O481    O    0.00705   0.29631   0.22904   1.000
    O482    O    0.00581   0.22163   0.23075   1.000
    O483    O    0.14307   0.84226   0.22915   1.000
    O484    O    0.00480   0.14471   0.23260   1.000
    O485    O    0.00497   0.07069   0.23339   1.000
    O486    O    0.14359   0.77569   0.23109   1.000
    O487    O    0.08010   0.81654   0.23134   1.000
    O488    O    0.19690   0.73381   0.23119   1.000
    O489    O    0.32826   0.27092   0.23705   1.000
    O490    O    0.14060   0.70158   0.23354   1.000
    O491    O    0.94510   0.33626   0.23953   1.000
    O492    O    0.01416   0.85887   0.23288   1.000
    O493    O    0.01301   0.78189   0.23378   1.000
    O494    O    0.01401   0.93287   0.23293   1.000
    O495    O    0.00977   0.00180   0.23475   1.000
    O496    O    0.95791   0.89925   0.23471   1.000
    O497    O    0.95585   0.74476   0.23587   1.000
    O498    O    0.01186   0.70725   0.23597   1.000
    O499    O    0.07596   0.66778   0.23599   1.000
    O500    O    0.15411   0.61245   0.23780   1.000
    O501    O    0.94089   0.18743   0.24337   1.000
    O502    O    0.01667   0.64043   0.23843   1.000
    O503    O    0.38019   0.16203   0.24437   1.000
    O504    O    0.15989   0.52552   0.27254   1.000
    O505    O    0.23134   0.58334   0.27270   1.000
    O506    O    0.37975   0.22864   0.24574   1.000
    O507    O    0.38270   0.30278   0.24791   1.000
    O508    O    0.86856   0.39197   0.24979   1.000
    O509    O    0.88254   0.30290   0.25172   1.000
    O510    O    0.36875   0.39189   0.25006   1.000
    O511    O    0.28323   0.42039   0.27133   1.000
    O512    O    0.35360   0.47764   0.28362   1.000
    O513    O    0.44103   0.18733   0.25634   1.000
    O514    O    0.87957   0.22876   0.25386   1.000
    O515    O    0.88000   0.16215   0.25522   1.000
    O516    O    0.86466   0.48818   0.27770   1.000
    O517    O    0.80083   0.42556   0.29000   1.000
    O518    O    0.44520   0.33615   0.26023   1.000
    O519    O    0.82805   0.27104   0.26245   1.000
    O520    O    0.65398   0.61246   0.26269   1.000
    O521    O    0.66697   0.51722   0.29003   1.000
    O522    O    0.73292   0.58119   0.29070   1.000
    O523    O    0.51654   0.64037   0.26219   1.000
    O524    O    0.50980   0.00173   0.26535   1.000
    O525    O    0.50503   0.07061   0.26658   1.000
    O526    O    0.45572   0.74474   0.26450   1.000
    O527    O    0.51172   0.70721   0.26460   1.000
    O528    O    0.57580   0.66773   0.26474   1.000
    O529    O    0.45787   0.89922   0.26548   1.000
    O530    O    0.50489   0.14463   0.26728   1.000
    O531    O    0.50591   0.22154   0.26906   1.000
    O532    O    0.51289   0.78185   0.26665   1.000
    O533    O    0.64044   0.70150   0.26736   1.000
    O534    O    0.51399   0.93280   0.26734   1.000
    O535    O    0.51409   0.85882   0.26744   1.000
    O536    O    0.50713   0.29622   0.27077   1.000
    O537    O    0.50260   0.36313   0.27142   1.000
    O538    O    0.57999   0.81647   0.26928   1.000
    O539    O    0.64346   0.77561   0.26985   1.000
    O540    O    0.69676   0.73370   0.26988   1.000
    O541    O    0.55980   0.10409   0.27546   1.000
    O542    O    0.64295   0.84217   0.27178   1.000
    O543    O    0.56115   0.25825   0.28013   1.000
    O544    O    0.19881   0.40906   0.30613   1.000
    O545    O    0.87540   0.55995   0.31521   1.000
    O546    O    0.14725   0.45736   0.31084   1.000
    O547    O    0.30524   0.59315   0.31799   1.000
    O548    O    0.14271   0.39539   0.33870   1.000
    O549    O    0.35572   0.54428   0.32539   1.000
    O550    O    0.66814   0.44717   0.33081   1.000
    O551    O    0.81538   0.59609   0.32460   1.000
    O552    O    0.73029   0.41237   0.33438   1.000
    O553    O    0.87872   0.61778   0.34718   1.000
    O554    O    0.35691   0.60500   0.35451   1.000
    O555    O    0.67302   0.39045   0.36371   1.000
    O556    O    0.00501   0.60728   0.36892   1.000
    O557    O    0.02061   0.40993   0.36907   1.000
    O558    O    0.07937   0.37596   0.36939   1.000
    O559    O    0.14227   0.33389   0.37209   1.000
    O560    O    0.94569   0.63998   0.37279   1.000
    O561    O    0.88252   0.68081   0.37913   1.000
    O562    O    0.19584   0.29362   0.37661   1.000
    O563    O    0.35477   0.66602   0.38876   1.000
    O564    O    0.41640   0.62222   0.38912   1.000
    O565    O    0.01865   0.35848   0.39904   1.000
    O566    O    0.00990   0.65979   0.39774   1.000
    O567    O    0.30220   0.70785   0.39073   1.000
    O568    O    0.82886   0.72002   0.38688   1.000
    O569    O    0.47374   0.58652   0.39164   1.000
    O570    O    0.14441   0.27429   0.40441   1.000
    O571    O    0.67725   0.32804   0.39602   1.000
    O572    O    0.61277   0.36765   0.39632   1.000
    O573    O    0.55292   0.39932   0.39846   1.000
    O574    O    0.73251   0.28987   0.39836   1.000
    O575    O    0.88386   0.74199   0.40997   1.000
    O576    O    0.35146   0.72594   0.42072   1.000
    O577    O    0.47475   0.63824   0.42144   1.000
    O578    O    0.08548   0.87974   0.42801   1.000
    O579    O    0.68319   0.26665   0.42650   1.000
    O580    O    0.55443   0.34634   0.42700   1.000
    O581    O    0.95696   0.13440   0.43229   1.000
    O582    O    0.06413   0.67968   0.42182   1.000
    O583    O    0.01077   0.72016   0.42959   1.000
    O584    O    0.96731   0.33998   0.42663   1.000
    O585    O    0.02114   0.29930   0.43192   1.000
    O586    O    0.14282   0.22263   0.43359   1.000
    O587    O    0.08400   0.25717   0.43460   1.000
    O588    O    0.13564   0.83621   0.43909   1.000
    O589    O    0.53615   0.86278   0.45034   1.000
    O590    O    0.94789   0.76154   0.43548   1.000
    O591    O    0.88851   0.79515   0.43755   1.000
    O592    O    0.90417   0.17587   0.44217   1.000
    O593    O    0.50465   0.11568   0.45448   1.000
    O594    O    0.35205   0.77802   0.44957   1.000
    O595    O    0.40972   0.74202   0.45320   1.000
    O596    O    0.01549   0.78035   0.46474   1.000
    O597    O    0.52420   0.65576   0.45097   1.000
    O598    O    0.47138   0.69812   0.45355   1.000
    O599    O    0.01962   0.23880   0.46699   1.000
    O600    O    0.68486   0.21294   0.45418   1.000
    O601    O    0.62496   0.24527   0.45775   1.000
    O602    O    0.50545   0.32467   0.45544   1.000
    O603    O    0.56068   0.28536   0.45795   1.000
    O604    O    0.58903   0.82166   0.46137   1.000
    O605    O    0.45087   0.15560   0.46345   1.000
    O606    O    0.12435   0.89013   0.46677   1.000
    O607    O    0.07265   0.83347   0.46886   1.000
    O608    O    0.91815   0.12377   0.47105   1.000
    O609    O    0.96637   0.18293   0.47216   1.000
    O610    O    0.47295   0.76036   0.48690   1.000
    O611    O    0.56237   0.22243   0.49076   1.000
    O612    O    0.57467   0.87524   0.48898   1.000
    O613    O    0.52643   0.81610   0.49119   1.000
    O614    O    0.46559   0.10385   0.49306   1.000
    O615    O    0.51187   0.16385   0.49474   1.000
    O616    O    0.01188   0.83611   0.50523   1.000
    O617    O    0.06238   0.77745   0.50919   1.000
    O618    O    0.02676   0.18423   0.50833   1.000
    O619    O    0.97306   0.23977   0.51219   1.000
    O620    O    0.96558   0.89615   0.50693   1.000
    O621    O    0.07482   0.12514   0.51102   1.000
    O622    O    0.46593   0.81657   0.52736   1.000
    O623    O    0.51950   0.76090   0.53214   1.000
    O624    O    0.41790   0.87577   0.52893   1.000
    O625    O    0.57266   0.16647   0.53112   1.000
    O626    O    0.51550   0.21960   0.53526   1.000
    O627    O    0.62439   0.10979   0.53321   1.000
    O628    O    0.95089   0.84441   0.53655   1.000
    O629    O    0.00464   0.88429   0.54550   1.000
    O630    O    0.08948   0.17889   0.53839   1.000
    O631    O    0.03624   0.13885   0.54961   1.000
    O632    O    0.06066   0.71454   0.54199   1.000
    O633    O    0.12498   0.75444   0.54217   1.000
    O634    O    0.97124   0.30221   0.54542   1.000
    O635    O    0.90960   0.25846   0.54576   1.000
    O636    O    0.00540   0.67538   0.54453   1.000
    O637    O    0.18491   0.78659   0.54569   1.000
    O638    O    0.02402   0.34452   0.54800   1.000
    O639    O    0.85187   0.22266   0.54946   1.000
    O640    O    0.40335   0.82355   0.55756   1.000
    O641    O    0.45669   0.86377   0.56768   1.000
    O642    O    0.63565   0.16371   0.56088   1.000
    O643    O    0.58551   0.12021   0.57198   1.000
    O644    O    0.05435   0.65362   0.57299   1.000
    O645    O    0.18317   0.73295   0.57308   1.000
    O646    O    0.38874   0.20464   0.56285   1.000
    O647    O    0.58411   0.74224   0.56444   1.000
    O648    O    0.52129   0.70020   0.56711   1.000
    O649    O    0.97465   0.36207   0.57763   1.000
    O650    O    0.64295   0.77665   0.56545   1.000
    O651    O    0.85140   0.27466   0.57837   1.000
    O652    O    0.44800   0.23833   0.56472   1.000
    O653    O    0.51080   0.27978   0.57041   1.000
    O654    O    0.46753   0.65954   0.57239   1.000
    O655    O    0.38413   0.25769   0.59054   1.000
    O656    O    0.56410   0.32029   0.57797   1.000
    O657    O    0.64451   0.72507   0.59467   1.000
    O658    O    0.51885   0.64105   0.60005   1.000
    O659    O    0.51000   0.34005   0.60235   1.000
    O660    O    0.23247   0.70963   0.60123   1.000
    O661    O    0.17717   0.67163   0.60362   1.000
    O662    O    0.05278   0.60070   0.60160   1.000
    O663    O    0.11266   0.63221   0.60372   1.000
    O664    O    0.97376   0.41371   0.60745   1.000
    O665    O    0.91642   0.37812   0.61012   1.000
    O666    O    0.80221   0.29277   0.60850   1.000
    O667    O    0.85481   0.33446   0.61051   1.000
    O668    O    0.32928   0.27948   0.61394   1.000
    O669    O    0.38285   0.31877   0.62149   1.000
    O670    O    0.17290   0.60932   0.63634   1.000
    O671    O    0.69591   0.70576   0.62252   1.000
    O672    O    0.64237   0.66558   0.62708   1.000
    O673    O    0.57952   0.62360   0.62979   1.000
    O674    O    0.52080   0.58968   0.63009   1.000
    O675    O    0.85708   0.39524   0.64499   1.000
    O676    O    0.44593   0.35969   0.62761   1.000
    O677    O    0.50516   0.39247   0.63124   1.000
    O678    O    0.37910   0.38182   0.65344   1.000
    O679    O    0.64277   0.60432   0.66072   1.000
    O680    O    0.23010   0.58748   0.66575   1.000
    O681    O    0.16809   0.55255   0.66921   1.000
    O682    O    0.85593   0.45579   0.67434   1.000
    O683    O    0.80563   0.40688   0.68174   1.000
    O684    O    0.30079   0.57445   0.71017   1.000
    O685    O    0.31594   0.40324   0.67641   1.000
    O686    O    0.37570   0.44000   0.68504   1.000
    O687    O    0.16710   0.48264   0.71008   1.000
    O688    O    0.23338   0.41837   0.71011   1.000
    O689    O    0.85367   0.52240   0.71618   1.000
    O690    O    0.64731   0.54255   0.68886   1.000
    O691    O    0.69874   0.59088   0.69352   1.000
    O692    O    0.73166   0.41663   0.72712   1.000
    O693    O    0.66000   0.47445   0.72730   1.000
    O694    O    0.36483   0.51201   0.72228   1.000
    O695    O    0.78314   0.57964   0.72841   1.000
    O696    O    0.06117   0.74161   0.72040   1.000
    O697    O    0.05983   0.89571   0.72518   1.000
    O698    O    0.00262   0.63682   0.72890   1.000
    O699    O    0.00709   0.70373   0.72951   1.000
    O700    O    0.00579   0.77842   0.73118   1.000
    O701    O    0.14359   0.15753   0.73067   1.000
    O702    O    0.00479   0.85534   0.73302   1.000
    O703    O    0.00505   0.92938   0.73383   1.000
    O704    O    0.08057   0.18338   0.73186   1.000
    O705    O    0.14405   0.22412   0.73221   1.000
    O706    O    0.32765   0.72935   0.73796   1.000
    O707    O    0.01457   0.14120   0.73276   1.000
    O708    O    0.01342   0.21818   0.73320   1.000
    O709    O    0.94508   0.66389   0.73981   1.000
    O710    O    0.19735   0.26591   0.73281   1.000
    O711    O    0.14098   0.29828   0.73419   1.000
    O712    O    0.01433   0.06718   0.73316   1.000
    O713    O    0.00997   0.99826   0.73528   1.000
    O714    O    0.95825   0.10100   0.73409   1.000
    O715    O    0.95622   0.25545   0.73429   1.000
    O716    O    0.01221   0.29285   0.73492   1.000
    O717    O    0.07629   0.33221   0.73557   1.000
    O718    O    0.15435   0.38749   0.73791   1.000
    O719    O    0.01695   0.35970   0.73704   1.000
    O720    O    0.94076   0.81274   0.74356   1.000
    O721    O    0.15996   0.47438   0.77266   1.000
    O722    O    0.23163   0.41661   0.77282   1.000
    O723    O    0.37957   0.83816   0.74507   1.000
    O724    O    0.37922   0.77155   0.74635   1.000
    O725    O    0.38227   0.69739   0.74837   1.000
    O726    O    0.86864   0.60817   0.74976   1.000
    O727    O    0.88242   0.69735   0.75178   1.000
    O728    O    0.36855   0.60820   0.75026   1.000
    O729    O    0.28305   0.57961   0.77158   1.000
    O730    O    0.35363   0.52239   0.78376   1.000
    O731    O    0.44062   0.81279   0.75656   1.000
    O732    O    0.87939   0.77151   0.75387   1.000
    O733    O    0.87976   0.83812   0.75514   1.000
    O734    O    0.86484   0.51194   0.77765   1.000
    O735    O    0.80083   0.57441   0.78978   1.000
    O736    O    0.44498   0.66393   0.76022   1.000
    O737    O    0.82784   0.72931   0.76232   1.000
    O738    O    0.65434   0.38752   0.76196   1.000
    O739    O    0.73337   0.41835   0.78983   1.000
    O740    O    0.66711   0.48263   0.78987   1.000
    O741    O    0.51693   0.35975   0.76296   1.000
    O742    O    0.50988   0.99830   0.76467   1.000
    O743    O    0.50496   0.92943   0.76614   1.000
    O744    O    0.57626   0.33225   0.76430   1.000
    O745    O    0.51217   0.29290   0.76504   1.000
    O746    O    0.50469   0.85538   0.76696   1.000
    O747    O    0.50571   0.77847   0.76881   1.000
    O748    O    0.64096   0.29830   0.76552   1.000
    O749    O    0.45817   0.10106   0.76591   1.000
    O750    O    0.45617   0.25551   0.76576   1.000
    O751    O    0.51338   0.21823   0.76670   1.000
    O752    O    0.69733   0.26593   0.76675   1.000
    O753    O    0.64402   0.22414   0.76741   1.000
    O754    O    0.51426   0.06723   0.76673   1.000
    O755    O    0.51451   0.14124   0.76710   1.000
    O756    O    0.50702   0.70378   0.77044   1.000
    O757    O    0.50256   0.63687   0.77099   1.000
    O758    O    0.58053   0.18342   0.76785   1.000
    O759    O    0.64356   0.15755   0.76888   1.000
    O760    O    0.55978   0.89576   0.77469   1.000
    O761    O    0.56113   0.74166   0.77945   1.000
    O762    O    0.19861   0.59077   0.80652   1.000
    O763    O    0.87568   0.43991   0.81491   1.000
    O764    O    0.14721   0.54241   0.81115   1.000
    O765    O    0.30558   0.40686   0.81819   1.000
    O766    O    0.14264   0.60415   0.83935   1.000
    O767    O    0.35589   0.45576   0.82559   1.000
    O768    O    0.81590   0.40317   0.82354   1.000
    O769    O    0.66810   0.55252   0.83076   1.000
    O770    O    0.87906   0.38175   0.84651   1.000
    O771    O    0.73011   0.58744   0.83422   1.000
    O772    O    0.35704   0.39521   0.85493   1.000
    O773    O    0.67290   0.60930   0.86363   1.000
    O774    O    0.00512   0.39238   0.86868   1.000
    O775    O    0.02066   0.58946   0.87004   1.000
    O776    O    0.07938   0.62339   0.87032   1.000
    O777    O    0.14221   0.66538   0.87298   1.000
    O778    O    0.94589   0.35961   0.87233   1.000
    O779    O    0.88281   0.31871   0.87847   1.000
    O780    O    0.19574   0.70558   0.87753   1.000
    O781    O    0.00996   0.33999   0.89758   1.000
    O782    O    0.35476   0.33444   0.88942   1.000
    O783    O    0.41637   0.37808   0.88982   1.000
    O784    O    0.01871   0.64084   0.90009   1.000
    O785    O    0.82924   0.27942   0.88604   1.000
    O786    O    0.30216   0.29274   0.89143   1.000
    O787    O    0.47371   0.41367   0.89247   1.000
    O788    O    0.14434   0.72488   0.90540   1.000
    O789    O    0.61264   0.63219   0.89626   1.000
    O790    O    0.67715   0.67162   0.89636   1.000
    O791    O    0.55276   0.60069   0.89836   1.000
    O792    O    0.73246   0.70960   0.89875   1.000
    O793    O    0.88410   0.25765   0.90944   1.000
    O794    O    0.35134   0.27465   0.92156   1.000
    O795    O    0.47460   0.36204   0.92230   1.000
    O796    O    0.08551   0.12022   0.92799   1.000
    O797    O    0.55433   0.65362   0.92699   1.000
    O798    O    0.68316   0.73293   0.92692   1.000
    O799    O    0.95668   0.86375   0.93230   1.000
    O800    O    0.06406   0.32025   0.92190   1.000
    O801    O    0.01076   0.27975   0.92954   1.000
    O802    O    0.96740   0.65934   0.92776   1.000
    O803    O    0.02114   0.70001   0.93302   1.000
    O804    O    0.14278   0.77648   0.93463   1.000
    O805    O    0.08394   0.74206   0.93567   1.000
    O806    O    0.13564   0.16372   0.93909   1.000
    O807    O    0.53622   0.13886   0.95032   1.000
    O808    O    0.94797   0.23832   0.93526   1.000
    O809    O    0.88871   0.20463   0.93715   1.000
    O810    O    0.90332   0.82354   0.94241   1.000
    O811    O    0.50464   0.88429   0.95447   1.000
    O812    O    0.01547   0.21961   0.96470   1.000
    O813    O    0.35180   0.22266   0.95047   1.000
    O814    O    0.40953   0.25846   0.95417   1.000
    O815    O    0.52396   0.34450   0.95191   1.000
    O816    O    0.47117   0.30221   0.95450   1.000
    O817    O    0.01934   0.76081   0.96790   1.000
    O818    O    0.68489   0.78658   0.95431   1.000
    O819    O    0.62496   0.75443   0.95782   1.000
    O820    O    0.50537   0.67539   0.95546   1.000
    O821    O    0.56064   0.71454   0.95800   1.000
    O822    O    0.58945   0.17891   0.96155   1.000
    O823    O    0.45088   0.84442   0.96344   1.000
    O824    O    0.12438   0.10981   0.96675   1.000
    O825    O    0.07264   0.16650   0.96885   1.000
    O826    O    0.91789   0.87578   0.97104   1.000
    O827    O    0.96584   0.81655   0.97261   1.000
    O828    O    0.76141   0.50230   0.25620   1.000
    O829    O    0.26161   0.49778   0.74400   1.000
    O830    O    0.76164   0.49777   0.75594   1.000
    O831    O    0.26158   0.50224   0.24389   1.000
loop_
    _geom_bond_atom_site_label_1
    _geom_bond_atom_site_label_2
    _geom_bond_distance
    _geom_bond_site_symmetry_2
    _ccdc_geom_bond_type
    C358   O392      0.68139  1_554   S
    C166   O392      0.68139      .   S
    C376   O393      0.68048  1_554   S
    C229   O393      0.68048      .   S
    C165   O394      0.78219      .   S
    C167   O394      0.78219      .   S
    C165   O395      0.77123      .   S
    C168   O395      0.77123      .   S
    C165   O396      0.77294  1_554   S
    C162   O396      0.77294      .   S
    C165   O397      0.78308  1_554   S
    C166   O397      0.78308      .   S
    C360   O398      0.67968      .   S
    C167   O398      0.67968      .   S
    C228   O399      0.78481      .   S
    C230   O399      0.78481      .   S
    C228   O400      0.77269      .   S
    C231   O400      0.77269      .   S
    C228   O401      0.77283  1_554   S
    C225   O401      0.77283      .   S
    C228   O402      0.78162  1_554   S
    C229   O402      0.78162      .   S
    C377   O403      0.68073      .   S
    C230   O403      0.68073      .   S
    C275   O404      0.68267      .   S
    C386   O404      0.68267      .   S
    C275   O405      0.67850  1_655   S
    C387   O405      0.67850      .   S
    C275   O406      0.78164  1_655   S
    C274   O406      0.78164  1_556   S
    C275   O407      0.68039      .   S
    C388   O407      0.68039  1_556   S
    C120   O408      0.68181      .   S
    C345   O408      0.68181      .   S
    C120   O409      0.68026      .   S
    C344   O409      0.68026      .   S
    C120   O410      0.78371      .   S
    C119   O410      0.78371  1_656   S
    C120   O411      0.68066      .   S
    C346   O411      0.68066  1_556   S
    C271   O412      0.70291      .   S
    C272   O412      0.70291      .   S
    C271   O413      0.70029      .   S
    C270   O413      0.70029      .   S
    C271   O414      0.77292      .   S
    C274   O414      0.77292  1_556   S
    C116   O415      0.70255      .   S
    C117   O415      0.70255      .   S
    C116   O416      0.70075      .   S
    C115   O416      0.70075      .   S
    C116   O417      0.77229      .   S
    C119   O417      0.77229  1_556   S
    C96    O418      0.54405  1_655   S
    C272   O418      0.54405      .   S
    C95    O419      0.54336      .   S
    C270   O419      0.54336      .   S
    C10    O420      0.54422      .   S
    C117   O420      0.54422  1_655   S
    C9     O421      0.54318      .   S
    C115   O421      0.54318      .   S
    C167   O422      0.68295      .   S
    C361   O422      0.68295      .   S
    C167   O423      0.67916      .   S
    C359   O423      0.67916      .   S
    C230   O424      0.68195      .   S
    C379   O424      0.68195      .   S
    C230   O425      0.67826      .   S
    C378   O425      0.67826      .   S
    C272   O426      0.69528      .   S
    C273   O426      0.69528      .   S
    C270   O427      0.69724      .   S
    C269   O427      0.69724      .   S
    C75    O428      0.54316      .   S
    C236   O428      0.54316      .   S
    C168   O429      0.70052      .   S
    C173   O429      0.70052      .   S
    C168   O430      0.70270      .   S
    C169   O430      0.70270      .   S
    C117   O431      0.69535      .   S
    C118   O431      0.69535      .   S
    C231   O432      0.70059      .   S
    C236   O432      0.70059      .   S
    C231   O433      0.70277      .   S
    C232   O433      0.70277      .   S
    C41    O434      0.54336      .   S
    C173   O434      0.54336      .   S
    C115   O435      0.69703      .   S
    C114   O435      0.69703      .   S
    C38    O436      0.54446      .   S
    C169   O436      0.54446      .   S
    C236   O437      0.69675      .   S
    C235   O437      0.69675      .   S
    C72    O438      0.54427      .   S
    C232   O438      0.54427      .   S
    C173   O439      0.69600      .   S
    C172   O439      0.69600      .   S
    C169   O440      0.69597      .   S
    C170   O440      0.69597      .   S
    C232   O441      0.69544      .   S
    C233   O441      0.69544      .   S
    C269   O442      0.54356      .   S
    C94    O442      0.54356      .   S
    C269   O443      0.69931      .   S
    C268   O443      0.69931      .   S
    C273   O444      0.54391      .   S
    C97    O444      0.54391      .   S
    C273   O445      0.69992      .   S
    C268   O445      0.69992      .   S
    C118   O446      0.54438      .   S
    C11    O446      0.54438      .   S
    C118   O447      0.70032      .   S
    C113   O447      0.70032      .   S
    C114   O448      0.54407      .   S
    C8     O448      0.54407      .   S
    C114   O449      0.69920      .   S
    C113   O449      0.69920      .   S
    C235   O450      0.54456      .   S
    C74    O450      0.54456      .   S
    C235   O451      0.69956      .   S
    C234   O451      0.69956      .   S
    C268   O452      0.75242      .   S
    C267   O452      0.75242      .   S
    C172   O453      0.54459      .   S
    C40    O453      0.54459      .   S
    C172   O454      0.69977      .   S
    C171   O454      0.69977      .   S
    C233   O455      0.70078      .   S
    C234   O455      0.70078      .   S
    C233   O456      0.54471      .   S
    C73    O456      0.54471      .   S
    C170   O457      0.70038      .   S
    C171   O457      0.70038      .   S
    C170   O458      0.54475      .   S
    C39    O458      0.54475      .   S
    C113   O459      0.75172      .   S
    C112   O459      0.75172      .   S
    C234   O460      0.75020      .   S
    C237   O460      0.75020      .   S
    C171   O461      0.74981      .   S
    C174   O461      0.74981      .   S
    C267   O462      0.63561      .   S
    C340   O462      0.63561      .   S
    C267   O463      0.63860      .   S
    C341   O463      0.63860      .   S
    C112   O464      0.63792      .   S
    C313   O464      0.63792      .   S
    C112   O465      0.63645      .   S
    C312   O465      0.63645      .   S
    C340   O466      1.04715      .   S
    C7     O466      1.04715      .   S
    C237   O467      0.63565      .   S
    C335   O467      0.63565      .   S
    C237   O468      0.63835      .   S
    C334   O468      0.63835      .   S
    C335   O469      1.04350      .   S
    C6     O469      1.04350      .   S
    C341   O470      1.03282      .   S
    C6     O470      1.03282      .   S
    C313   O471      1.02671      .   S
    C1     O471      1.02671      .   S
    C174   O472      0.63834      .   S
    C323   O472      0.63834      .   S
    C174   O473      0.63640      .   S
    C322   O473      0.63640      .   S
    C323   O474      1.02908      .   S
    C0     O474      1.02908      .   S
    C312   O475      1.06292      .   S
    C0     O475      1.06292      .   S
    C334   O476      1.02801      .   S
    C7     O476      1.02801      .   S
    C322   O477      1.04686      .   S
    C1     O477      1.04686      .   S
    C108   O478      0.54477      .   S
    C292   O478      0.54477      .   S
    C107   O479      0.54939      .   S
    C290   O479      0.54939      .   S
    C109   O480      0.54519      .   S
    C293   O480      0.54519  1_655   S
    C292   O481      0.69619      .   S
    C293   O481      0.69619  1_655   S
    C292   O482      0.70149      .   S
    C291   O482      0.70149  1_655   S
    C103   O483      0.54409      .   S
    C285   O483      0.54409      .   S
    C290   O484      0.72936      .   S
    C291   O484      0.72936  1_655   S
    C290   O485      0.64867      .   S
    C310   O485      0.64867  1_655   S
    C285   O486      0.69044      .   S
    C284   O486      0.69044      .   S
    C285   O487      0.70352      .   S
    C286   O487      0.70352      .   S
    C102   O488      0.54402      .   S
    C284   O488      0.54402      .   S
    C32    O489      0.54413      .   S
    C156   O489      0.54413      .   S
    C284   O490      0.67759      .   S
    C308   O490      0.67759      .   S
    C293   O491      0.67394      .   S
    C311   O491      0.67394      .   S
    C286   O492      0.72933      .   S
    C289   O492      0.72933  1_655   S
    C286   O493      0.70126      .   S
    C287   O493      0.70126  1_655   S
    C309   O494      0.64867      .   S
    C289   O494      0.64867  1_655   S
    C309   O495      0.69602  1_565   S
    C310   O495      0.69602  1_655   S
    C289   O496      0.54938      .   S
    C106   O496      0.54938      .   S
    C287   O497      0.54487      .   S
    C104   O497      0.54487      .   S
    C287   O498      0.69639  1_655   S
    C288   O498      0.69639      .   S
    C308   O499      0.67374      .   S
    C288   O499      0.67374      .   S
    C308   O500      1.03271      .   S
    C6     O500      1.03271      .   S
    C291   O501      0.70340      .   S
    C295   O501      0.70340      .   S
    C288   O502      0.54507      .   S
    C105   O502      0.54507  1_655   S
    C33    O503      0.54410      .   S
    C157   O503      0.54410      .   S
    C6     O504      1.02882      .   S
    C331   O504      1.02882      .   S
    C6     O505      1.06419      .   S
    C336   O505      1.06419      .   S
    C156   O506      0.69067      .   S
    C157   O506      0.69067      .   S
    C156   O507      0.67737      .   S
    C299   O507      0.67737      .   S
    C311   O508      1.03197      .   S
    C1     O508      1.03197      .   S
    C311   O509      0.67744      .   S
    C294   O509      0.67744      .   S
    C7     O510      1.03197      .   S
    C299   O510      1.03197      .   S
    C7     O511      1.04584      .   S
    C330   O511      1.04584      .   S
    C7     O512      1.02896      .   S
    C337   O512      1.02896      .   S
    C157   O513      0.70340      .   S
    C153   O513      0.70340      .   S
    C295   O514      0.69069      .   S
    C294   O514      0.69069      .   S
    C295   O515      0.54411      .   S
    C111   O515      0.54411      .   S
    C1     O516      1.02772      .   S
    C326   O516      1.02772      .   S
    C1     O517      1.04616      .   S
    C316   O517      1.04616      .   S
    C299   O518      0.67392      .   S
    C155   O518      0.67392      .   S
    C294   O519      0.54410      .   S
    C110   O519      0.54410      .   S
    C0     O520      1.03235      .   S
    C296   O520      1.03235      .   S
    C0     O521      1.03260      .   S
    C317   O521      1.03260      .   S
    C0     O522      1.04605      .   S
    C327   O522      1.04605      .   S
    C27    O523      0.54507      .   S
    C150   O523      0.54507      .   S
    C298   O524      0.69604      .   S
    C297   O524      0.69604  1_565   S
    C298   O525      0.64873      .   S
    C152   O525      0.64873      .   S
    C26    O526      0.54486      .   S
    C149   O526      0.54486      .   S
    C150   O527      0.69643      .   S
    C149   O527      0.69643      .   S
    C150   O528      0.67366      .   S
    C296   O528      0.67366      .   S
    C28    O529      0.54938      .   S
    C151   O529      0.54938      .   S
    C153   O530      0.72934      .   S
    C152   O530      0.72934      .   S
    C153   O531      0.70143      .   S
    C154   O531      0.70143      .   S
    C149   O532      0.70120      .   S
    C148   O532      0.70120      .   S
    C296   O533      0.67756      .   S
    C146   O533      0.67756      .   S
    C151   O534      0.64871      .   S
    C297   O534      0.64871      .   S
    C151   O535      0.72927      .   S
    C148   O535      0.72927      .   S
    C155   O536      0.69616      .   S
    C154   O536      0.69616      .   S
    C155   O537      0.54517      .   S
    C31    O537      0.54517      .   S
    C148   O538      0.70360      .   S
    C147   O538      0.70360      .   S
    C146   O539      0.69041      .   S
    C147   O539      0.69041      .   S
    C146   O540      0.54400      .   S
    C24    O540      0.54400      .   S
    C152   O541      0.54937      .   S
    C29    O541      0.54937      .   S
    C147   O542      0.54407      .   S
    C25    O542      0.54407      .   S
    C154   O543      0.54495      .   S
    C30    O543      0.54495      .   S
    C330   O544      0.63652      .   S
    C220   O544      0.63652      .   S
    C326   O545      0.63913      .   S
    C191   O545      0.63913      .   S
    C331   O546      0.63816      .   S
    C220   O546      0.63816      .   S
    C336   O547      0.63632      .   S
    C250   O547      0.63632      .   S
    C220   O548      0.74907      .   S
    C217   O548      0.74907      .   S
    C337   O549      0.63818      .   S
    C250   O549      0.63818      .   S
    C317   O550      0.63848      .   S
    C129   O550      0.63848      .   S
    C327   O551      0.63559      .   S
    C191   O551      0.63559      .   S
    C316   O552      0.63571      .   S
    C129   O552      0.63571      .   S
    C191   O553      0.75011      .   S
    C188   O553      0.75011      .   S
    C250   O554      0.75110      .   S
    C251   O554      0.75110      .   S
    C129   O555      0.75168      .   S
    C130   O555      0.75168      .   S
    C47    O556      0.54510      .   S
    C187   O556      0.54510  1_655   S
    C65    O557      0.54474      .   S
    C216   O557      0.54474      .   S
    C217   O558      0.70072      .   S
    C216   O558      0.70072      .   S
    C217   O559      0.70001      .   S
    C218   O559      0.70001      .   S
    C188   O560      0.70078      .   S
    C187   O560      0.70078      .   S
    C188   O561      0.69951      .   S
    C189   O561      0.69951      .   S
    C66    O562      0.54450      .   S
    C218   O562      0.54450      .   S
    C251   O563      0.69941      .   S
    C252   O563      0.69941      .   S
    C251   O564      0.70035      .   S
    C256   O564      0.70035      .   S
    C216   O565      0.69580      .   S
    C215   O565      0.69580  1_655   S
    C187   O566      0.69533  1_655   S
    C186   O566      0.69533      .   S
    C86    O567      0.54406      .   S
    C252   O567      0.54406      .   S
    C48    O568      0.54453      .   S
    C189   O568      0.54453      .   S
    C89    O569      0.54457      .   S
    C256   O569      0.54457      .   S
    C218   O570      0.69632      .   S
    C219   O570      0.69632      .   S
    C130   O571      0.69699      .   S
    C131   O571      0.69699      .   S
    C130   O572      0.70024      .   S
    C135   O572      0.70024      .   S
    C19    O573      0.54420      .   S
    C135   O573      0.54420      .   S
    C16    O574      0.54095      .   S
    C131   O574      0.54095      .   S
    C189   O575      0.69673      .   S
    C190   O575      0.69673      .   S
    C252   O576      0.69638      .   S
    C253   O576      0.69638      .   S
    C256   O577      0.69532      .   S
    C255   O577      0.69532      .   S
    C366   O578      0.67831      .   S
    C184   O578      0.67831      .   S
    C131   O579      0.70244      .   S
    C132   O579      0.70244      .   S
    C135   O580      0.69483      .   S
    C134   O580      0.69483      .   S
    C371   O581      0.67928      .   S
    C213   O581      0.67928      .   S
    C186   O582      0.54404      .   S
    C46    O582      0.54404      .   S
    C186   O583      0.70271      .   S
    C185   O583      0.70271  1_655   S
    C215   O584      0.54444      .   S
    C64    O584      0.54444      .   S
    C215   O585      0.70264  1_655   S
    C214   O585      0.70264      .   S
    C219   O586      0.54334      .   S
    C67    O586      0.54334      .   S
    C219   O587      0.70052      .   S
    C214   O587      0.70052      .   S
    C367   O588      0.68206      .   S
    C184   O588      0.68206      .   S
    C380   O589      0.68033      .   S
    C258   O589      0.68033      .   S
    C190   O590      0.70055      .   S
    C185   O590      0.70055      .   S
    C190   O591      0.54310      .   S
    C49    O591      0.54310      .   S
    C373   O592      0.68252      .   S
    C213   O592      0.68252      .   S
    C351   O593      0.67833      .   S
    C137   O593      0.67833      .   S
    C253   O594      0.54358      .   S
    C87    O594      0.54358      .   S
    C253   O595      0.70078      .   S
    C254   O595      0.70078      .   S
    C185   O596      0.77254  1_655   S
    C182   O596      0.77254      .   S
    C255   O597      0.54433      .   S
    C88    O597      0.54433      .   S
    C255   O598      0.70223      .   S
    C254   O598      0.70223      .   S
    C214   O599      0.77114      .   S
    C211   O599      0.77114  1_655   S
    C132   O600      0.54341      .   S
    C17    O600      0.54341      .   S
    C132   O601      0.70030      .   S
    C133   O601      0.70030      .   S
    C134   O602      0.54440      .   S
    C18    O602      0.54440      .   S
    C134   O603      0.70310      .   S
    C133   O603      0.70310      .   S
    C381   O604      0.68221      .   S
    C258   O604      0.68221      .   S
    C350   O605      0.68262      .   S
    C137   O605      0.68262      .   S
    C184   O606      0.68058      .   S
    C365   O606      0.68058      .   S
    C184   O607      0.78475      .   S
    C182   O607      0.78475      .   S
    C213   O608      0.67976      .   S
    C372   O608      0.67976      .   S
    C213   O609      0.78201      .   S
    C211   O609      0.78201      .   S
    C254   O610      0.77172      .   S
    C257   O610      0.77172      .   S
    C133   O611      0.77281      .   S
    C136   O611      0.77281      .   S
    C258   O612      0.68035      .   S
    C382   O612      0.68035      .   S
    C258   O613      0.78321      .   S
    C257   O613      0.78321      .   S
    C137   O614      0.68051      .   S
    C352   O614      0.68051      .   S
    C137   O615      0.78163      .   S
    C136   O615      0.78163      .   S
    C182   O616      0.78148      .   S
    C183   O616      0.78148  1_655   S
    C182   O617      0.77283      .   S
    C179   O617      0.77283      .   S
    C211   O618      0.78218  1_655   S
    C212   O618      0.78218      .   S
    C211   O619      0.77284      .   S
    C208   O619      0.77284      .   S
    C364   O620      0.68048      .   S
    C183   O620      0.68048      .   S
    C370   O621      0.68085      .   S
    C212   O621      0.68085      .   S
    C257   O622      0.78175      .   S
    C259   O622      0.78175      .   S
    C257   O623      0.77274      .   S
    C260   O623      0.77274      .   S
    C384   O624      0.68031      .   S
    C259   O624      0.68031      .   S
    C136   O625      0.78463      .   S
    C138   O625      0.78463      .   S
    C136   O626      0.77247      .   S
    C139   O626      0.77247      .   S
    C353   O627      0.68046      .   S
    C138   O627      0.68046      .   S
    C183   O628      0.68267      .   S
    C362   O628      0.68267      .   S
    C183   O629      0.67821  1_655   S
    C363   O629      0.67821      .   S
    C212   O630      0.68185      .   S
    C369   O630      0.68185      .   S
    C212   O631      0.67912      .   S
    C368   O631      0.67912      .   S
    C179   O632      0.70295      .   S
    C180   O632      0.70295      .   S
    C179   O633      0.70027      .   S
    C178   O633      0.70027      .   S
    C208   O634      0.70259      .   S
    C209   O634      0.70259      .   S
    C208   O635      0.70076      .   S
    C207   O635      0.70076      .   S
    C44    O636      0.54405  1_655   S
    C180   O636      0.54405      .   S
    C43    O637      0.54337      .   S
    C178   O637      0.54337      .   S
    C62    O638      0.54425      .   S
    C209   O638      0.54425  1_655   S
    C61    O639      0.54316      .   S
    C207   O639      0.54316      .   S
    C259   O640      0.68285      .   S
    C385   O640      0.68285      .   S
    C259   O641      0.67802      .   S
    C383   O641      0.67802      .   S
    C138   O642      0.68209      .   S
    C355   O642      0.68209      .   S
    C138   O643      0.67830      .   S
    C354   O643      0.67830      .   S
    C180   O644      0.69527      .   S
    C181   O644      0.69527      .   S
    C178   O645      0.69717      .   S
    C177   O645      0.69717      .   S
    C23    O646      0.54312      .   S
    C144   O646      0.54312      .   S
    C260   O647      0.70062      .   S
    C265   O647      0.70062      .   S
    C260   O648      0.70271      .   S
    C261   O648      0.70271      .   S
    C209   O649      0.69558      .   S
    C210   O649      0.69558      .   S
    C93    O650      0.54330      .   S
    C265   O650      0.54330      .   S
    C207   O651      0.69730      .   S
    C206   O651      0.69730      .   S
    C139   O652      0.70054      .   S
    C144   O652      0.70054      .   S
    C139   O653      0.70281      .   S
    C140   O653      0.70281      .   S
    C90    O654      0.54450      .   S
    C261   O654      0.54450      .   S
    C144   O655      0.69669      .   S
    C143   O655      0.69669      .   S
    C20    O656      0.54427      .   S
    C140   O656      0.54427      .   S
    C265   O657      0.69633      .   S
    C264   O657      0.69633      .   S
    C261   O658      0.69608      .   S
    C262   O658      0.69608      .   S
    C140   O659      0.69532      .   S
    C141   O659      0.69532      .   S
    C177   O660      0.54354      .   S
    C42    O660      0.54354      .   S
    C177   O661      0.69960      .   S
    C176   O661      0.69960      .   S
    C181   O662      0.54418      .   S
    C45    O662      0.54418      .   S
    C181   O663      0.70018      .   S
    C176   O663      0.70018      .   S
    C210   O664      0.54426      .   S
    C63    O664      0.54426      .   S
    C210   O665      0.70043      .   S
    C205   O665      0.70043      .   S
    C206   O666      0.54402      .   S
    C60    O666      0.54402      .   S
    C206   O667      0.69948      .   S
    C205   O667      0.69948      .   S
    C143   O668      0.54454      .   S
    C22    O668      0.54454      .   S
    C143   O669      0.69954      .   S
    C142   O669      0.69954      .   S
    C176   O670      0.75166      .   S
    C175   O670      0.75166      .   S
    C264   O671      0.54449      .   S
    C92    O671      0.54449      .   S
    C264   O672      0.69978      .   S
    C263   O672      0.69978      .   S
    C262   O673      0.70058      .   S
    C263   O673      0.70058      .   S
    C262   O674      0.54474      .   S
    C91    O674      0.54474      .   S
    C205   O675      0.75152      .   S
    C204   O675      0.75152      .   S
    C141   O676      0.70075      .   S
    C142   O676      0.70075      .   S
    C141   O677      0.54474      .   S
    C21    O677      0.54474      .   S
    C142   O678      0.74998      .   S
    C145   O678      0.74998      .   S
    C263   O679      0.74989      .   S
    C266   O679      0.74989      .   S
    C175   O680      0.63554      .   S
    C324   O680      0.63554      .   S
    C175   O681      0.63853      .   S
    C325   O681      0.63853      .   S
    C204   O682      0.63819      .   S
    C329   O682      0.63819      .   S
    C204   O683      0.63632      .   S
    C328   O683      0.63632      .   S
    C324   O684      1.04679      .   S
    C3     O684      1.04679      .   S
    C145   O685      0.63564      .   S
    C319   O685      0.63564      .   S
    C145   O686      0.63830      .   S
    C318   O686      0.63830      .   S
    C325   O687      1.03279      .   S
    C2     O687      1.03279      .   S
    C319   O688      1.04220      .   S
    C2     O688      1.04220      .   S
    C329   O689      1.02891      .   S
    C5     O689      1.02891      .   S
    C266   O690      0.63821      .   S
    C339   O690      0.63821      .   S
    C266   O691      0.63659      .   S
    C338   O691      0.63659      .   S
    C328   O692      1.06595      .   S
    C4     O692      1.06595      .   S
    C339   O693      1.02885      .   S
    C4     O693      1.02885      .   S
    C318   O694      1.02778      .   S
    C3     O694      1.02778      .   S
    C338   O695      1.04665      .   S
    C5     O695      1.04665      .   S
    C56    O696      0.54476      .   S
    C200   O696      0.54476      .   S
    C55    O697      0.54938      .   S
    C198   O697      0.54938      .   S
    C57    O698      0.54519      .   S
    C201   O698      0.54519  1_655   S
    C200   O699      0.69620      .   S
    C201   O699      0.69620  1_655   S
    C200   O700      0.70154      .   S
    C199   O700      0.70154  1_655   S
    C51    O701      0.54409      .   S
    C193   O701      0.54409      .   S
    C198   O702      0.72944      .   S
    C199   O702      0.72944  1_655   S
    C198   O703      0.64869      .   S
    C302   O703      0.64869  1_655   S
    C193   O704      0.70356      .   S
    C194   O704      0.70356      .   S
    C193   O705      0.69056      .   S
    C192   O705      0.69056      .   S
    C84    O706      0.54414      .   S
    C248   O706      0.54414      .   S
    C194   O707      0.72944      .   S
    C197   O707      0.72944  1_655   S
    C194   O708      0.70131      .   S
    C195   O708      0.70131  1_655   S
    C201   O709      0.67398      .   S
    C303   O709      0.67398      .   S
    C50    O710      0.54404      .   S
    C192   O710      0.54404      .   S
    C192   O711      0.67757      .   S
    C300   O711      0.67757      .   S
    C301   O712      0.64866      .   S
    C197   O712      0.64866  1_655   S
    C301   O713      0.69607  1_545   S
    C302   O713      0.69607  1_655   S
    C197   O714      0.54940      .   S
    C54    O714      0.54940      .   S
    C195   O715      0.54487      .   S
    C52    O715      0.54487      .   S
    C195   O716      0.69639  1_655   S
    C196   O716      0.69639      .   S
    C300   O717      0.67375      .   S
    C196   O717      0.67375      .   S
    C300   O718      1.03309      .   S
    C2     O718      1.03309      .   S
    C196   O719      0.54506      .   S
    C53    O719      0.54506      .   S
    C199   O720      0.70341      .   S
    C203   O720      0.70341      .   S
    C2     O721      1.02873      .   S
    C315   O721      1.02873      .   S
    C2     O722      1.06609      .   S
    C320   O722      1.06609      .   S
    C85    O723      0.54412      .   S
    C249   O723      0.54412      .   S
    C248   O724      0.69079      .   S
    C249   O724      0.69079      .   S
    C248   O725      0.67738      .   S
    C307   O725      0.67738      .   S
    C303   O726      1.03253      .   S
    C5     O726      1.03253      .   S
    C303   O727      0.67737      .   S
    C202   O727      0.67737      .   S
    C3     O728      1.03243      .   S
    C307   O728      1.03243      .   S
    C3     O729      1.04734      .   S
    C314   O729      1.04734      .   S
    C3     O730      1.02953      .   S
    C321   O730      1.02953      .   S
    C249   O731      0.70341      .   S
    C245   O731      0.70341      .   S
    C203   O732      0.69079      .   S
    C202   O732      0.69079      .   S
    C203   O733      0.54402      .   S
    C59    O733      0.54402      .   S
    C5     O734      1.02824      .   S
    C342   O734      1.02824      .   S
    C5     O735      1.04687      .   S
    C332   O735      1.04687      .   S
    C307   O736      0.67398      .   S
    C247   O736      0.67398      .   S
    C202   O737      0.54413      .   S
    C58    O737      0.54413      .   S
    C4     O738      1.03302      .   S
    C304   O738      1.03302      .   S
    C4     O739      1.04243      .   S
    C343   O739      1.04243      .   S
    C4     O740      1.03269      .   S
    C333   O740      1.03269      .   S
    C79    O741      0.54505      .   S
    C242   O741      0.54505      .   S
    C306   O742      0.69614      .   S
    C305   O742      0.69614  1_545   S
    C306   O743      0.64875      .   S
    C244   O743      0.64875      .   S
    C242   O744      0.67375      .   S
    C304   O744      0.67375      .   S
    C242   O745      0.69645      .   S
    C241   O745      0.69645      .   S
    C245   O746      0.72950      .   S
    C244   O746      0.72950      .   S
    C245   O747      0.70160      .   S
    C246   O747      0.70160      .   S
    C304   O748      0.67758      .   S
    C238   O748      0.67758      .   S
    C80    O749      0.54938      .   S
    C243   O749      0.54938      .   S
    C78    O750      0.54488      .   S
    C241   O750      0.54488      .   S
    C241   O751      0.70137      .   S
    C240   O751      0.70137      .   S
    C238   O752      0.54404      .   S
    C76    O752      0.54404      .   S
    C238   O753      0.69054      .   S
    C239   O753      0.69054      .   S
    C243   O754      0.64873      .   S
    C305   O754      0.64873      .   S
    C243   O755      0.72950      .   S
    C240   O755      0.72950      .   S
    C247   O756      0.69625      .   S
    C246   O756      0.69625      .   S
    C247   O757      0.54511      .   S
    C83    O757      0.54511      .   S
    C240   O758      0.70355      .   S
    C239   O758      0.70355      .   S
    C239   O759      0.54410      .   S
    C77    O759      0.54410      .   S
    C244   O760      0.54940      .   S
    C81    O760      0.54940      .   S
    C246   O761      0.54469      .   S
    C82    O761      0.54469      .   S
    C314   O762      0.63664      .   S
    C128   O762      0.63664      .   S
    C342   O763      0.63836      .   S
    C283   O763      0.63836      .   S
    C315   O764      0.63823      .   S
    C128   O764      0.63823      .   S
    C320   O765      0.63614      .   S
    C158   O765      0.63614      .   S
    C128   O766      0.74994      .   S
    C125   O766      0.74994      .   S
    C321   O767      0.63812      .   S
    C158   O767      0.63812      .   S
    C343   O768      0.63565      .   S
    C283   O768      0.63565      .   S
    C333   O769      0.63849      .   S
    C221   O769      0.63849      .   S
    C283   O770      0.75002      .   S
    C280   O770      0.75002      .   S
    C332   O771      0.63563      .   S
    C221   O771      0.63563      .   S
    C158   O772      0.75190      .   S
    C159   O772      0.75190      .   S
    C221   O773      0.75165      .   S
    C222   O773      0.75165      .   S
    C99    O774      0.54466      .   S
    C279   O774      0.54466  1_655   S
    C13    O775      0.54475      .   S
    C124   O775      0.54475      .   S
    C125   O776      0.70060      .   S
    C124   O776      0.70060      .   S
    C125   O777      0.69958      .   S
    C126   O777      0.69958      .   S
    C280   O778      0.70076      .   S
    C279   O778      0.70076      .   S
    C280   O779      0.69954      .   S
    C281   O779      0.69954      .   S
    C14    O780      0.54433      .   S
    C126   O780      0.54433      .   S
    C279   O781      0.69529  1_655   S
    C278   O781      0.69529      .   S
    C159   O782      0.69947      .   S
    C160   O782      0.69947      .   S
    C159   O783      0.70044      .   S
    C164   O783      0.70044      .   S
    C124   O784      0.69614      .   S
    C123   O784      0.69614  1_655   S
    C100   O785      0.54454      .   S
    C281   O785      0.54454      .   S
    C34    O786      0.54404      .   S
    C160   O786      0.54404      .   S
    C37    O787      0.54428      .   S
    C164   O787      0.54428      .   S
    C126   O788      0.69663      .   S
    C127   O788      0.69663      .   S
    C222   O789      0.70018      .   S
    C227   O789      0.70018      .   S
    C222   O790      0.69959      .   S
    C223   O790      0.69959      .   S
    C71    O791      0.54422      .   S
    C227   O791      0.54422      .   S
    C68    O792      0.54354      .   S
    C223   O792      0.54354      .   S
    C281   O793      0.69678      .   S
    C282   O793      0.69678      .   S
    C160   O794      0.69729      .   S
    C161   O794      0.69729      .   S
    C164   O795      0.69548      .   S
    C163   O795      0.69548      .   S
    C390   O796      0.67831      .   S
    C276   O796      0.67831      .   S
    C227   O797      0.69526      .   S
    C226   O797      0.69526      .   S
    C223   O798      0.69717      .   S
    C224   O798      0.69717      .   S
    C347   O799      0.67811      .   S
    C121   O799      0.67811      .   S
    C278   O800      0.54408      .   S
    C98    O800      0.54408      .   S
    C278   O801      0.70272      .   S
    C277   O801      0.70272  1_655   S
    C123   O802      0.54449      .   S
    C12    O802      0.54449      .   S
    C123   O803      0.70263  1_655   S
    C122   O803      0.70263      .   S
    C127   O804      0.54329      .   S
    C15    O804      0.54329      .   S
    C127   O805      0.70068      .   S
    C122   O805      0.70068      .   S
    C391   O806      0.68207      .   S
    C276   O806      0.68207      .   S
    C356   O807      0.67895      .   S
    C166   O807      0.67895      .   S
    C282   O808      0.70053      .   S
    C277   O808      0.70053      .   S
    C282   O809      0.54312      .   S
    C101   O809      0.54312      .   S
    C349   O810      0.68280      .   S
    C121   O810      0.68280      .   S
    C375   O811      0.67841      .   S
    C229   O811      0.67841      .   S
    C277   O812      0.77249  1_655   S
    C274   O812      0.77249      .   S
    C161   O813      0.54319      .   S
    C35    O813      0.54319      .   S
    C161   O814      0.70077      .   S
    C162   O814      0.70077      .   S
    C163   O815      0.54434      .   S
    C36    O815      0.54434      .   S
    C163   O816      0.70262      .   S
    C162   O816      0.70262      .   S
    C122   O817      0.77202      .   S
    C119   O817      0.77202  1_655   S
    C224   O818      0.54334      .   S
    C69    O818      0.54334      .   S
    C224   O819      0.70021      .   S
    C225   O819      0.70021      .   S
    C226   O820      0.54418      .   S
    C70    O820      0.54418      .   S
    C226   O821      0.70291      .   S
    C225   O821      0.70291      .   S
    C357   O822      0.68162      .   S
    C166   O822      0.68162      .   S
    C374   O823      0.68270      .   S
    C229   O823      0.68270      .   S
    C276   O824      0.68047      .   S
    C389   O824      0.68047      .   S
    C276   O825      0.78466      .   S
    C274   O825      0.78466      .   S
    C121   O826      0.68027      .   S
    C348   O826      0.68027      .   S
    C121   O827      0.78123      .   S
    C119   O827      0.78123      .   S
    C0     O828      1.46282      .   S
    C1     O828      1.46282      .   S
    C2     O829      1.46408      .   S
    C3     O829      1.46408      .   S
    C4     O830      1.46407      .   S
    C5     O830      1.46407      .   S
    C6     O831      1.46330      .   S
    C7     O831      1.46330      .   S
