# CIF file generated by openbabel 2.4.90, see http://openbabel.sf.net
data_I
_chemical_name_common ''
_cell_length_a 3.9555
_cell_length_b 8.1165
_cell_length_c 26.6393
_cell_angle_alpha 90.0007
_cell_angle_beta 93.2013
_cell_angle_gamma 90.002
_space_group_name_H-M_alt 'P 1'
_space_group_name_Hall 'P 1'
loop_
    _symmetry_equiv_pos_as_xyz
    x,y,z
loop_
    _atom_site_label
    _atom_site_type_symbol
    _atom_site_fract_x
    _atom_site_fract_y
    _atom_site_fract_z
    _atom_site_occupancy
    Lv0     Lv   0.50040   0.49982   0.49991   1.000
    Lv1     Lv   0.00038   0.00016   0.99991   1.000
