# CIF file generated by openbabel 2.4.90, see http://openbabel.sf.net
data_I
_chemical_name_common ''
_cell_length_a 3.9555
_cell_length_b 8.1165
_cell_length_c 26.6393
_cell_angle_alpha 90.0007
_cell_angle_beta 93.2013
_cell_angle_gamma 90.002
_space_group_name_H-M_alt 'P 1'
_space_group_name_Hall 'P 1'
loop_
    _symmetry_equiv_pos_as_xyz
    x,y,z
loop_
    _atom_site_label
    _atom_site_type_symbol
    _atom_site_fract_x
    _atom_site_fract_y
    _atom_site_fract_z
    _atom_site_occupancy
    Zr0     Zr   0.83344   0.27344   0.77553   1.000
    Zr1     Zr   0.66612   0.77474   0.72435   1.000
    Zr2     Zr   0.16612   0.72525   0.22435   1.000
    Zr3     Zr   0.33346   0.22656   0.27552   1.000
    N4      N    0.50040   0.49982   0.49991   1.000
    N5      N    0.00038   0.00016   0.99991   1.000
    C6      C    0.65609   0.50230   0.15955   1.000
    O7      O    0.52894   0.56765   0.17803   1.000
    C8      C    0.79150   0.60099   0.30630   1.000
    O9      O    0.70209   0.57123   0.36501   1.000
    O10     O    0.95343   0.47553   0.29658   1.000
    C11     C    0.70931   0.10086   0.19358   1.000
    O12     O    0.79870   0.07131   0.13484   1.000
    O13     O    0.54843   0.97489   0.20333   1.000
    C14     C    0.83745   0.00236   0.34019   1.000
    O15     O    0.96613   0.06803   0.32175   1.000
    C16     C    0.20928   0.39915   0.69358   1.000
    O17     O    0.04841   0.52512   0.70333   1.000
    O18     O    0.29869   0.42869   0.63484   1.000
    C19     C    0.33740   0.49767   0.84019   1.000
    O20     O    0.46610   0.43199   0.82176   1.000
    C21     C    0.29147   0.89902   0.80630   1.000
    O22     O    0.20206   0.92877   0.86501   1.000
    O23     O    0.45340   0.02447   0.79659   1.000
    C24     C    0.15607   0.99771   0.65956   1.000
    O25     O    0.02893   0.93237   0.67804   1.000
    O26     O    0.88789   0.63288   0.28402   1.000
    O27     O    0.38787   0.86712   0.78402   1.000
    O28     O    0.61260   0.13310   0.21585   1.000
    O29     O    0.11258   0.36691   0.71586   1.000
loop_
    _geom_bond_atom_site_label_1
    _geom_bond_atom_site_label_2
    _geom_bond_distance
    _geom_bond_site_symmetry_2
    _ccdc_geom_bond_type
    C6     O7        0.89681      .   S
    Zr2    O7        2.32727      .   S
    C8     O9        1.64063      .   S
    N4     O9        3.76917      .   S
    C8     O10       1.23801      .   S
    Zr3    O10       2.59850  1_455   S
    C11    O12       1.64096      .   S
    N5     O12       3.76961  1_456   S
    C11    O13       1.23943  1_545   S
    Zr2    O13       2.60772      .   S
    C14    O15       0.90135      .   S
    Zr3    O15       2.34166  1_455   S
    C16    O17       1.23945      .   S
    Zr1    O17       2.60762  1_655   S
    C16    O18       1.64097      .   S
    N4     O18       3.76965      .   S
    C19    O20       0.90141      .   S
    Zr0    O20       2.34172      .   S
    C21    O22       1.64058      .   S
    N5     O22       3.76912  1_545   S
    C21    O23       1.23792  1_565   S
    Zr0    O23       2.59841      .   S
    C24    O25       0.89676      .   S
    Zr1    O25       2.32716  1_655   S
    C8     O26       0.76801      .   S
    Zr2    O26       2.12033  1_455   S
    C21    O27       0.76802      .   S
    Zr1    O27       2.12038      .   S
    Zr3    O28       2.12532      .   S
    C11    O28       0.76963      .   S
    C16    O29       0.76966      .   S
    Zr0    O29       2.12540  1_655   S
