# CIF file generated by openbabel 2.4.90, see http://openbabel.sf.net
data_I
_chemical_name_common ''
_cell_length_a 3.9555
_cell_length_b 8.1165
_cell_length_c 26.6393
_cell_angle_alpha 90.0007
_cell_angle_beta 93.2013
_cell_angle_gamma 90.002
_space_group_name_H-M_alt 'P 1'
_space_group_name_Hall 'P 1'
loop_
    _symmetry_equiv_pos_as_xyz
    x,y,z
loop_
    _atom_site_label
    _atom_site_type_symbol
    _atom_site_fract_x
    _atom_site_fract_y
    _atom_site_fract_z
    _atom_site_occupancy
    Zr0     Zr   0.83344   0.27344   0.77553   1.000
    Zr1     Zr   0.66612   0.77474   0.72435   1.000
    Zr2     Zr   0.16612   0.72525   0.22435   1.000
    Zr3     Zr   0.33346   0.22656   0.27552   1.000
    N4      N    0.50040   0.49982   0.49991   1.000
    N5      N    0.00038   0.00016   0.99991   1.000
    C6      C    0.65609   0.50230   0.15955   1.000
    O7      O    0.52894   0.56765   0.17803   1.000
    C8      C    0.79150   0.60099   0.30630   1.000
    O9      O    0.70209   0.57123   0.36501   1.000
    O10     O    0.86419   0.66556   0.28426   1.000
    O11     O    0.95343   0.47553   0.29658   1.000
    O12     O    0.91160   0.60020   0.28379   1.000
    C13     C    0.70931   0.10086   0.19358   1.000
    O14     O    0.79870   0.07131   0.13484   1.000
    O15     O    0.63494   0.16598   0.21559   1.000
    O16     O    0.54843   0.97489   0.20333   1.000
    O17     O    0.59026   0.10022   0.21612   1.000
    C18     C    0.83745   0.00236   0.34019   1.000
    O19     O    0.96613   0.06803   0.32175   1.000
    C20     C    0.20928   0.39915   0.69358   1.000
    O21     O    0.13491   0.33403   0.71560   1.000
    O22     O    0.04841   0.52512   0.70333   1.000
    O23     O    0.09024   0.39980   0.71613   1.000
    O24     O    0.29869   0.42869   0.63484   1.000
    C25     C    0.33740   0.49767   0.84019   1.000
    O26     O    0.46610   0.43199   0.82176   1.000
    C27     C    0.29147   0.89902   0.80630   1.000
    O28     O    0.36417   0.83445   0.78426   1.000
    O29     O    0.20206   0.92877   0.86501   1.000
    O30     O    0.45340   0.02447   0.79659   1.000
    O31     O    0.41157   0.89980   0.78379   1.000
    C32     C    0.15607   0.99771   0.65956   1.000
    O33     O    0.02893   0.93237   0.67804   1.000
loop_
    _geom_bond_atom_site_label_1
    _geom_bond_atom_site_label_2
    _geom_bond_distance
    _geom_bond_site_symmetry_2
    _ccdc_geom_bond_type
    C6     O7        0.89681      .   S
    Zr2    O7        2.32727      .   S
    C8     O9        1.64063      .   S
    N4     O9        3.76917      .   S
    C8     O10       0.84913      .   S
    Zr2    O10       2.10261  1_455   S
    C8     O11       1.23801      .   S
    Zr3    O11       2.59850  1_455   S
    C8     O12       0.78559      .   S
    Zr2    O12       2.17465  1_455   S
    C13    O14       1.64096      .   S
    N5     O14       3.76961  1_456   S
    C13    O15       0.85381      .   S
    Zr3    O15       2.10366      .   S
    C13    O16       1.23943  1_545   S
    Zr2    O16       2.60772      .   S
    C13    O17       0.78356      .   S
    Zr3    O17       2.18332      .   S
    C18    O19       0.90135      .   S
    Zr3    O19       2.34166  1_455   S
    C20    O21       0.85386      .   S
    Zr0    O21       2.10371  1_655   S
    C20    O22       1.23945      .   S
    Zr1    O22       2.60762  1_655   S
    C20    O23       0.78357      .   S
    Zr0    O23       2.18343  1_655   S
    C20    O24       1.64097      .   S
    N4     O24       3.76965      .   S
    C25    O26       0.90141      .   S
    Zr0    O26       2.34172      .   S
    C27    O28       0.84916      .   S
    Zr1    O28       2.10262      .   S
    C27    O29       1.64058      .   S
    N5     O29       3.76912  1_545   S
    C27    O30       1.23792  1_565   S
    Zr0    O30       2.59841      .   S
    C27    O31       0.78554      .   S
    Zr1    O31       2.17474      .   S
    C32    O33       0.89676      .   S
    Zr1    O33       2.32716  1_655   S
