# CIF file generated by openbabel 2.4.90, see http://openbabel.sf.net
data_I
_chemical_name_common ''
_cell_length_a 3.9555
_cell_length_b 8.1165
_cell_length_c 26.6393
_cell_angle_alpha 90.0007
_cell_angle_beta 93.2013
_cell_angle_gamma 90.002
_space_group_name_H-M_alt 'P 1'
_space_group_name_Hall 'P 1'
loop_
    _symmetry_equiv_pos_as_xyz
    x,y,z
loop_
    _atom_site_label
    _atom_site_type_symbol
    _atom_site_fract_x
    _atom_site_fract_y
    _atom_site_fract_z
    _atom_site_occupancy
    Zr0     Zr   0.83344   0.27344   0.77553   1.000
    Zr1     Zr   0.66612   0.77474   0.72435   1.000
    Zr2     Zr   0.16612   0.72525   0.22435   1.000
    Zr3     Zr   0.33346   0.22656   0.27552   1.000
    Zr4     Zr   0.29606   0.57632   0.82186   1.000
    Zr5     Zr   0.36000   0.45753   0.86762   1.000
    Zr6     Zr   0.19814   0.07650   0.67782   1.000
    Zr7     Zr   0.13260   0.95735   0.63218   1.000
    Zr8     Zr   0.69816   0.42349   0.17781   1.000
    Zr9     Zr   0.63261   0.54268   0.13217   1.000
    Zr10    Zr   0.79608   0.92372   0.32186   1.000
    Zr11    Zr   0.86010   0.04250   0.36761   1.000
    Zr12    Zr   0.23123   0.40563   0.67925   1.000
    Zr13    Zr   0.26958   0.90566   0.82061   1.000
    Zr14    Zr   0.76960   0.59436   0.32061   1.000
    Zr15    Zr   0.73124   0.09437   0.17924   1.000
    Zr16    Zr   0.28765   0.26438   0.69969   1.000
    Zr17    Zr   0.10896   0.52744   0.70181   1.000
    Zr18    Zr   0.35615   0.45917   0.83111   1.000
    Zr19    Zr   0.20762   0.76500   0.80007   1.000
    Zr20    Zr   0.39722   0.02640   0.79821   1.000
    Zr21    Zr   0.13746   0.95929   0.66869   1.000
    Zr22    Zr   0.70764   0.73501   0.30008   1.000
    Zr23    Zr   0.89726   0.47359   0.29821   1.000
    Zr24    Zr   0.63748   0.54073   0.16868   1.000
    Zr25    Zr   0.78769   0.23563   0.19968   1.000
    Zr26    Zr   0.60898   0.97259   0.20181   1.000
    Zr27    Zr   0.85616   0.04085   0.33110   1.000
    O28     O    0.63505   0.54170   0.15042   1.000
    O29     O    0.66782   0.48211   0.17325   1.000
    O30     O    0.75947   0.16500   0.18946   1.000
    O31     O    0.67011   0.03348   0.19052   1.000
    O32     O    0.38755   0.84892   0.21308   1.000
    O33     O    0.11536   0.35008   0.28686   1.000
    O34     O    0.83343   0.53397   0.30941   1.000
    O35     O    0.73862   0.66468   0.31035   1.000
    O36     O    0.82612   0.98228   0.32648   1.000
    O37     O    0.85813   0.04168   0.34936   1.000
    O38     O    0.13503   0.95832   0.65043   1.000
    O39     O    0.16780   0.01790   0.67326   1.000
    O40     O    0.25944   0.33500   0.68947   1.000
    O41     O    0.17010   0.46654   0.69053   1.000
    O42     O    0.88754   0.65109   0.71308   1.000
    O43     O    0.61533   0.14992   0.78687   1.000
    O44     O    0.33340   0.96603   0.80941   1.000
    O45     O    0.23860   0.83533   0.81034   1.000
    O46     O    0.32610   0.51774   0.82648   1.000
    O47     O    0.35808   0.45835   0.84936   1.000
    O48     O    0.06055   0.26891   0.73761   1.000
    O49     O    0.97120   0.40044   0.73867   1.000
    O50     O    0.59479   0.36630   0.80332   1.000
    O51     O    0.43687   0.76987   0.76221   1.000
    O52     O    0.53167   0.90057   0.76128   1.000
    O53     O    0.90179   0.86702   0.69652   1.000
    O54     O    0.93688   0.73013   0.26222   1.000
    O55     O    0.03169   0.59942   0.26128   1.000
    O56     O    0.40180   0.63299   0.19651   1.000
    O57     O    0.56058   0.23110   0.23760   1.000
    O58     O    0.47122   0.09958   0.23866   1.000
    O59     O    0.09481   0.13371   0.30331   1.000
    N60     N    0.50040   0.49982   0.49991   1.000
    O61     O    0.38809   0.45823   0.57611   1.000
    O62     O    0.61267   0.54148   0.42373   1.000
    N63     N    0.00038   0.00016   0.99991   1.000
    O64     O    0.11264   0.95852   0.92372   1.000
    O65     O    0.88809   0.04176   0.07610   1.000
loop_
    _geom_bond_atom_site_label_1
    _geom_bond_atom_site_label_2
    _geom_bond_distance
    _geom_bond_site_symmetry_2
    _ccdc_geom_bond_type
    Zr9    O28       0.48599      .   S
    Zr24   O28       0.48599      .   S
    Zr24   O29       0.50391      .   S
    Zr8    O29       0.50391      .   S
    Zr15   O30       0.64175      .   S
    Zr25   O30       0.64175      .   S
    Zr15   O31       0.63336      .   S
    Zr26   O31       0.63336  1_565   S
    Zr26   O32       1.37627      .   S
    Zr2    O32       1.37627      .   S
    Zr3    O33       1.36738      .   S
    Zr23   O33       1.36738  1_655   S
    Zr23   O34       0.63359      .   S
    Zr14   O34       0.63359      .   S
    Zr22   O35       0.64179      .   S
    Zr14   O35       0.64179      .   S
    Zr10   O36       0.50361      .   S
    Zr27   O36       0.50361  1_545   S
    Zr27   O37       0.48597      .   S
    Zr11   O37       0.48597      .   S
    Zr7    O38       0.48599      .   S
    Zr21   O38       0.48599      .   S
    Zr21   O39       0.50380  1_565   S
    Zr6    O39       0.50380      .   S
    Zr12   O40       0.64175      .   S
    Zr16   O40       0.64175      .   S
    Zr12   O41       0.63346      .   S
    Zr17   O41       0.63346      .   S
    Zr17   O42       1.37617  1_455   S
    Zr1    O42       1.37617      .   S
    Zr0    O43       1.36738      .   S
    Zr20   O43       1.36738      .   S
    Zr20   O44       0.63343  1_545   S
    Zr13   O44       0.63343      .   S
    Zr19   O45       0.64178      .   S
    Zr13   O45       0.64178      .   S
    Zr4    O46       0.50371      .   S
    Zr18   O46       0.50371      .   S
    Zr18   O47       0.48598      .   S
    Zr5    O47       0.48598      .   S
    Zr16   O48       1.38929      .   S
    Zr0    O48       1.38929  1_655   S
    Zr17   O49       1.54384  1_455   S
    Zr0    O49       1.54384      .   S
    Zr18   O50       1.44405      .   S
    Zr0    O50       1.44405      .   S
    Zr19   O51       1.39404      .   S
    Zr1    O51       1.39404      .   S
    Zr20   O52       1.53372  1_545   S
    Zr1    O52       1.53372      .   S
    Zr21   O53       1.43412  1_455   S
    Zr1    O53       1.43412      .   S
    Zr22   O54       1.39410      .   S
    Zr2    O54       1.39410  1_455   S
    Zr23   O55       1.53363  1_655   S
    Zr2    O55       1.53363      .   S
    Zr24   O56       1.43418      .   S
    Zr2    O56       1.43418      .   S
    Zr25   O57       1.38928      .   S
    Zr3    O57       1.38928      .   S
    Zr26   O58       1.54372  1_565   S
    Zr3    O58       1.54372      .   S
    Zr27   O59       1.44405  1_655   S
    Zr3    O59       1.44405      .   S
    N60    O61       2.12876      .   S
    Zr12   O61       2.88220      .   S
    N60    O62       2.12863      .   S
    Zr14   O62       2.88197      .   S
    N63    O64       2.12862  1_545   S
    Zr13   O64       2.88196      .   S
    N63    O65       2.12874  1_456   S
    Zr15   O65       2.88218      .   S
