# CIF file generated by openbabel 2.4.90, see http://openbabel.sf.net
data_I
_chemical_name_common ''
_cell_length_a 5.996
_cell_length_b 15.947
_cell_length_c 16.662
_cell_angle_alpha 90
_cell_angle_beta 90.015
_cell_angle_gamma 90.015
_space_group_name_H-M_alt 'P 1'
_space_group_name_Hall 'P 1'
loop_
    _symmetry_equiv_pos_as_xyz
    x,y,z
loop_
    _atom_site_label
    _atom_site_type_symbol
    _atom_site_fract_x
    _atom_site_fract_y
    _atom_site_fract_z
    _atom_site_occupancy
    Zr0     Zr   0.37186   0.95754   0.39894   1.000
    Zr1     Zr   0.12814   0.45764   0.60103   1.000
    Zr2     Zr   0.62850   0.54289   0.89899   1.000
    Zr3     Zr   0.87153   0.04280   0.10097   1.000
    N4      N    0.15724   0.83387   0.05842   1.000
    O5      O    0.34556   0.71908   0.98733   1.000
    O6      O    0.22671   0.88060   0.20003   1.000
    O7      O    0.08138   0.91143   0.07260   1.000
    N8      N    0.84234   0.66645   0.55837   1.000
    O9      O    0.77307   0.61981   0.70002   1.000
    O10     O    0.91817   0.58892   0.57260   1.000
    O11     O    0.65431   0.78126   0.48727   1.000
    N12     N    0.65776   0.16642   0.44158   1.000
    O13     O    0.72699   0.11974   0.29994   1.000
    O14     O    0.58191   0.08887   0.42736   1.000
    O15     O    0.84574   0.28130   0.51268   1.000
    N16     N    0.34259   0.33394   0.94180   1.000
    O17     O    0.27318   0.38070   0.80007   1.000
    O18     O    0.41849   0.41151   0.92750   1.000
    O19     O    0.15435   0.21909   0.01275   1.000
loop_
    _geom_bond_atom_site_label_1
    _geom_bond_atom_site_label_2
    _geom_bond_distance
    _geom_bond_site_symmetry_2
    _ccdc_geom_bond_type
    N4     O5        2.45568  1_554   S
    Zr2    O5        3.59762      .   S
    N4     O6        2.50912      .   S
    Zr0    O6        3.63936      .   S
    N4     O7        1.33898      .   S
    Zr3    O7        2.48950  1_645   S
    N8     O9        2.50922      .   S
    Zr2    O9        3.63985      .   S
    N8     O10       1.33857      .   S
    Zr1    O10       2.48859  1_455   S
    N8     O11       2.45507      .   S
    Zr0    O11       3.59687      .   S
    N12    O13       2.50936      .   S
    Zr3    O13       3.63999      .   S
    N12    O14       1.33879      .   S
    Zr0    O14       2.48894  1_565   S
    N12    O15       2.45518      .   S
    Zr1    O15       3.59708  1_455   S
    N16    O17       2.51116      .   S
    Zr1    O17       3.64127      .   S
    N16    O18       1.33939      .   S
    Zr2    O18       2.48985      .   S
    N16    O19       2.45470  1_556   S
    Zr3    O19       3.59695  1_655   S
