# CIF file generated by openbabel 2.4.90, see http://openbabel.sf.net
data_I
_chemical_name_common 'VESTA_phase_1'
_cell_length_a 20.216
_cell_length_b 23.15
_cell_length_c 14.866
_cell_angle_alpha 91.111
_cell_angle_beta 89.98
_cell_angle_gamma 89.953
_space_group_name_H-M_alt 'P 1'
_space_group_name_Hall 'P 1'
loop_
    _symmetry_equiv_pos_as_xyz
    x,y,z
loop_
    _atom_site_label
    _atom_site_type_symbol
    _atom_site_fract_x
    _atom_site_fract_y
    _atom_site_fract_z
    _atom_site_occupancy
    Zn0     Zn   0.46404   0.37745   0.12962   1.000
    Zn1     Zn   0.46405   0.87746   0.12960   1.000
    Zn2     Zn   0.96403   0.37745   0.12962   1.000
    Zn3     Zn   0.96404   0.87746   0.12962   1.000
    Zn4     Zn   0.05869   0.37020   0.30880   1.000
    Zn5     Zn   0.05870   0.87021   0.30885   1.000
    Zn6     Zn   0.55868   0.37020   0.30885   1.000
    Zn7     Zn   0.55869   0.87021   0.30884   1.000
    Zn8     Zn   0.21402   0.37255   0.37048   1.000
    Zn9     Zn   0.21403   0.87256   0.37048   1.000
    Zn10    Zn   0.71401   0.37256   0.37048   1.000
    Zn11    Zn   0.71402   0.87256   0.37048   1.000
    Zn12    Zn   0.30868   0.37980   0.19121   1.000
    Zn13    Zn   0.30869   0.87981   0.19121   1.000
    Zn14    Zn   0.80867   0.37980   0.19121   1.000
    Zn15    Zn   0.80868   0.87981   0.19122   1.000
    Zn16    Zn   0.03595   0.12256   0.87034   1.000
    Zn17    Zn   0.03596   0.62257   0.87033   1.000
    Zn18    Zn   0.53594   0.12256   0.87034   1.000
    Zn19    Zn   0.53595   0.62257   0.87034   1.000
    Zn20    Zn   0.44130   0.12981   0.69111   1.000
    Zn21    Zn   0.44130   0.62982   0.69111   1.000
    Zn22    Zn   0.94129   0.12981   0.69111   1.000
    Zn23    Zn   0.94129   0.62982   0.69111   1.000
    Zn24    Zn   0.28597   0.12746   0.62948   1.000
    Zn25    Zn   0.28597   0.62746   0.62947   1.000
    Zn26    Zn   0.78596   0.12746   0.62948   1.000
    Zn27    Zn   0.78596   0.62747   0.62948   1.000
    Zn28    Zn   0.19131   0.12021   0.80874   1.000
    Zn29    Zn   0.19131   0.62022   0.80874   1.000
    Zn30    Zn   0.69130   0.12021   0.80875   1.000
    Zn31    Zn   0.69130   0.62022   0.80875   1.000
    Zn32    Zn   0.00000   0.25000   0.00000   1.000
    Zn33    Zn   0.00001   0.75001   0.99999   1.000
    Zn34    Zn   0.49999   0.25000   0.00000   1.000
    Zn35    Zn   0.50000   0.75001   0.00000   1.000
    Zn36    Zn   0.24999   0.00000   0.49997   1.000
    Zn37    Zn   0.25000   0.50001   0.49997   1.000
    Zn38    Zn   0.74998   0.00000   0.49997   1.000
    Zn39    Zn   0.74999   0.50001   0.49998   1.000
    Zn40    Zn   0.00000   0.00000   0.00000   1.000
    Zn41    Zn   0.00001   0.50001   0.99999   1.000
    Zn42    Zn   0.49999   1.00000   0.99999   1.000
    Zn43    Zn   0.49999   0.50001   0.00000   1.000
    Zn44    Zn   0.25000   0.25001   0.49998   1.000
    Zn45    Zn   0.25000   0.75001   0.49998   1.000
    Zn46    Zn   0.74998   0.25000   0.49998   1.000
    Zn47    Zn   0.74999   0.75001   0.49998   1.000
    H48     H    0.37878   0.42832   0.37132   1.000
    H49     H    0.37878   0.92831   0.37132   1.000
    H50     H    0.87877   0.42829   0.37133   1.000
    H51     H    0.87877   0.92830   0.37133   1.000
    H52     H    0.02503   0.23722   0.27027   1.000
    H53     H    0.02499   0.73723   0.27028   1.000
    H54     H    0.52500   0.23723   0.27029   1.000
    H55     H    0.52504   0.73723   0.27026   1.000
    H56     H    0.30480   0.28102   0.04455   1.000
    H57     H    0.30481   0.78103   0.04453   1.000
    H58     H    0.80479   0.28102   0.04458   1.000
    H59     H    0.80479   0.78101   0.04462   1.000
    H60     H    0.10272   0.49082   0.23310   1.000
    H61     H    0.10271   0.99084   0.23314   1.000
    H62     H    0.60274   0.49081   0.23310   1.000
    H63     H    0.60275   0.99082   0.23309   1.000
    H64     H    0.08084   0.34530   0.91955   1.000
    H65     H    0.08080   0.84531   0.91948   1.000
    H66     H    0.58083   0.34530   0.91955   1.000
    H67     H    0.58086   0.84531   0.91956   1.000
    H68     H    0.35406   0.00144   0.01222   1.000
    H69     H    0.35406   0.50143   0.01220   1.000
    H70     H    0.85405   0.00142   0.01220   1.000
    H71     H    0.85405   0.50143   0.01219   1.000
    H72     H    0.12882   0.32185   0.12870   1.000
    H73     H    0.12882   0.82188   0.12875   1.000
    H74     H    0.62881   0.32186   0.12876   1.000
    H75     H    0.62882   0.82186   0.12875   1.000
    H76     H    0.27512   0.01277   0.22983   1.000
    H77     H    0.27505   0.51278   0.22980   1.000
    H78     H    0.77504   0.01277   0.22981   1.000
    H79     H    0.77512   0.51278   0.22984   1.000
    H80     H    0.05476   0.46905   0.45605   1.000
    H81     H    0.05477   0.96907   0.45605   1.000
    H82     H    0.55475   0.46907   0.45604   1.000
    H83     H    0.55476   0.96908   0.45601   1.000
    H84     H    0.35284   0.25917   0.26685   1.000
    H85     H    0.35283   0.75917   0.26683   1.000
    H86     H    0.85281   0.25916   0.26684   1.000
    H87     H    0.85284   0.75918   0.26686   1.000
    H88     H    0.33100   0.40463   0.58016   1.000
    H89     H    0.33101   0.90464   0.58016   1.000
    H90     H    0.83097   0.40463   0.58020   1.000
    H91     H    0.83099   0.90464   0.58018   1.000
    H92     H    0.10414   0.24850   0.48771   1.000
    H93     H    0.10414   0.74850   0.48770   1.000
    H94     H    0.60413   0.24849   0.48770   1.000
    H95     H    0.60413   0.74851   0.48770   1.000
    H96     H    0.12121   0.07172   0.62863   1.000
    H97     H    0.12121   0.57172   0.62862   1.000
    H98     H    0.62120   0.07172   0.62860   1.000
    H99     H    0.62121   0.57174   0.62863   1.000
    H100    H    0.47491   0.26279   0.72972   1.000
    H101    H    0.47495   0.76280   0.72970   1.000
    H102    H    0.97489   0.26279   0.72972   1.000
    H103    H    0.97491   0.76279   0.72900   1.000
    H104    H    0.19519   0.21901   0.95538   1.000
    H105    H    0.19520   0.71900   0.95536   1.000
    H106    H    0.69518   0.21898   0.95545   1.000
    H107    H    0.69519   0.71900   0.95542   1.000
    H108    H    0.39730   0.00918   0.76679   1.000
    H109    H    0.39726   0.50920   0.76684   1.000
    H110    H    0.89724   0.00920   0.76685   1.000
    H111    H    0.89726   0.50920   0.76683   1.000
    H112    H    0.41918   0.15471   0.08046   1.000
    H113    H    0.41915   0.65472   0.08042   1.000
    H114    H    0.91912   0.15471   0.08040   1.000
    H115    H    0.91913   0.65472   0.08039   1.000
    H116    H    0.14593   0.49859   0.98776   1.000
    H117    H    0.14594   0.99859   0.98775   1.000
    H118    H    0.64592   0.49859   0.98776   1.000
    H119    H    0.64593   0.99859   0.98770   1.000
    H120    H    0.37117   0.17814   0.87120   1.000
    H121    H    0.37117   0.67816   0.87120   1.000
    H122    H    0.87116   0.17815   0.87120   1.000
    H123    H    0.87116   0.67816   0.87120   1.000
    H124    H    0.22485   0.48723   0.77009   1.000
    H125    H    0.22488   0.98724   0.77010   1.000
    H126    H    0.72488   0.48724   0.77012   1.000
    H127    H    0.72487   0.98724   0.77011   1.000
    H128    H    0.44523   0.03100   0.54381   1.000
    H129    H    0.44523   0.53095   0.54391   1.000
    H130    H    0.94522   0.03094   0.54392   1.000
    H131    H    0.94522   0.53095   0.54392   1.000
    H132    H    0.14718   0.24085   0.73313   1.000
    H133    H    0.14714   0.74084   0.73309   1.000
    H134    H    0.64713   0.24084   0.73310   1.000
    H135    H    0.64715   0.74085   0.73311   1.000
    H136    H    0.16899   0.09539   0.41978   1.000
    H137    H    0.16900   0.59539   0.41978   1.000
    H138    H    0.66898   0.09538   0.41979   1.000
    H139    H    0.66900   0.59539   0.41976   1.000
    H140    H    0.39585   0.25151   0.51225   1.000
    H141    H    0.39586   0.75152   0.51225   1.000
    H142    H    0.89584   0.25151   0.51224   1.000
    H143    H    0.89585   0.75153   0.51226   1.000
    C144    C    0.41953   0.41216   0.32830   1.000
    C145    C    0.41953   0.91216   0.32829   1.000
    C146    C    0.91952   0.41215   0.32830   1.000
    C147    C    0.91953   0.91216   0.32831   1.000
    C148    C    0.01200   0.25975   0.20780   1.000
    C149    C    0.01198   0.75976   0.20780   1.000
    C150    C    0.51197   0.25975   0.20782   1.000
    C151    C    0.51199   0.75976   0.20780   1.000
    C152    C    0.35863   0.28845   0.05111   1.000
    C153    C    0.35863   0.78846   0.05108   1.000
    C154    C    0.85861   0.28845   0.05112   1.000
    C155    C    0.85862   0.78844   0.05116   1.000
    C156    C    0.06681   0.47613   0.18132   1.000
    C157    C    0.06681   0.97614   0.18133   1.000
    C158    C    0.56681   0.47613   0.18131   1.000
    C159    C    0.56682   0.97613   0.18131   1.000
    C160    C    0.05078   0.37180   0.96650   1.000
    C161    C    0.05075   0.87181   0.96647   1.000
    C162    C    0.55077   0.37180   0.96652   1.000
    C163    C    0.55078   0.87181   0.96652   1.000
    C164    C    0.36309   0.46504   0.05733   1.000
    C165    C    0.36310   0.96506   0.05730   1.000
    C166    C    0.86308   0.46504   0.05732   1.000
    C167    C    0.86308   0.96504   0.05733   1.000
    C168    C    0.16956   0.33794   0.17170   1.000
    C169    C    0.16957   0.83796   0.17170   1.000
    C170    C    0.66955   0.33794   0.17176   1.000
    C171    C    0.66956   0.83795   0.17170   1.000
    C172    C    0.26190   0.49026   0.29223   1.000
    C173    C    0.26193   0.99027   0.29224   1.000
    C174    C    0.76192   0.49026   0.29225   1.000
    C175    C    0.76191   0.99027   0.29224   1.000
    C176    C    0.10858   0.46150   0.44940   1.000
    C177    C    0.10858   0.96152   0.44940   1.000
    C178    C    0.60857   0.46151   0.44940   1.000
    C179    C    0.60857   0.96153   0.44937   1.000
    C180    C    0.31687   0.27386   0.31865   1.000
    C181    C    0.31687   0.77387   0.31860   1.000
    C182    C    0.81686   0.27386   0.31865   1.000
    C183    C    0.81688   0.77387   0.31866   1.000
    C184    C    0.30084   0.37817   0.53334   1.000
    C185    C    0.30085   0.87817   0.53334   1.000
    C186    C    0.80082   0.37816   0.53336   1.000
    C187    C    0.80083   0.87817   0.53336   1.000
    C188    C    0.11312   0.28491   0.44262   1.000
    C189    C    0.11312   0.78492   0.44261   1.000
    C190    C    0.61311   0.28491   0.44262   1.000
    C191    C    0.61311   0.78492   0.44262   1.000
    C192    C    0.08046   0.08786   0.67160   1.000
    C193    C    0.08046   0.58787   0.67165   1.000
    C194    C    0.58045   0.08786   0.67166   1.000
    C195    C    0.58046   0.58787   0.67166   1.000
    C196    C    0.48798   0.24026   0.79210   1.000
    C197    C    0.48800   0.74027   0.79216   1.000
    C198    C    0.98795   0.24026   0.79218   1.000
    C199    C    0.98797   0.74027   0.79216   1.000
    C200    C    0.14137   0.21157   0.94880   1.000
    C201    C    0.14137   0.71158   0.94881   1.000
    C202    C    0.64135   0.21155   0.94888   1.000
    C203    C    0.64136   0.71157   0.94887   1.000
    C204    C    0.43320   0.02387   0.81861   1.000
    C205    C    0.43318   0.52389   0.81864   1.000
    C206    C    0.93317   0.02388   0.81864   1.000
    C207    C    0.93318   0.52389   0.81863   1.000
    C208    C    0.44922   0.12821   0.03346   1.000
    C209    C    0.44922   0.62822   0.03340   1.000
    C210    C    0.94920   0.12821   0.03344   1.000
    C211    C    0.94920   0.62822   0.03343   1.000
    C212    C    0.13690   0.03497   0.94263   1.000
    C213    C    0.13691   0.53498   0.94263   1.000
    C214    C    0.63689   0.03497   0.94263   1.000
    C215    C    0.63690   0.53498   0.94263   1.000
    C216    C    0.33043   0.16206   0.82820   1.000
    C217    C    0.33043   0.66207   0.82820   1.000
    C218    C    0.83042   0.16206   0.82820   1.000
    C219    C    0.83042   0.66207   0.82820   1.000
    C220    C    0.23806   0.00974   0.70769   1.000
    C221    C    0.23805   0.50975   0.70768   1.000
    C222    C    0.73805   0.00974   0.70770   1.000
    C223    C    0.73806   0.50975   0.70771   1.000
    C224    C    0.39141   0.03853   0.55051   1.000
    C225    C    0.39142   0.53851   0.55055   1.000
    C226    C    0.89140   0.03850   0.55056   1.000
    C227    C    0.89140   0.53851   0.55056   1.000
    C228    C    0.18312   0.22615   0.68131   1.000
    C229    C    0.18311   0.72615   0.68120   1.000
    C230    C    0.68309   0.22614   0.68129   1.000
    C231    C    0.68310   0.72615   0.68129   1.000
    C232    C    0.19915   0.12185   0.46660   1.000
    C233    C    0.19916   0.62186   0.46660   1.000
    C234    C    0.69914   0.12185   0.46661   1.000
    C235    C    0.69916   0.62186   0.46659   1.000
    C236    C    0.38687   0.21510   0.55730   1.000
    C237    C    0.38688   0.71511   0.55734   1.000
    C238    C    0.88686   0.21510   0.55734   1.000
    C239    C    0.88687   0.71511   0.55734   1.000
    O240    O    0.40516   0.40022   0.24595   1.000
    O241    O    0.40517   0.90022   0.24590   1.000
    O242    O    0.90515   0.40022   0.24595   1.000
    O243    O    0.90516   0.90023   0.24596   1.000
    O244    O    0.47551   0.40757   0.36448   1.000
    O245    O    0.47552   0.90757   0.36448   1.000
    O246    O    0.97550   0.40756   0.36449   1.000
    O247    O    0.97551   0.90757   0.36450   1.000
    O248    O    0.01041   0.31527   0.21398   1.000
    O249    O    0.01041   0.81527   0.21398   1.000
    O250    O    0.51040   0.31527   0.21399   1.000
    O251    O    0.51040   0.81528   0.21398   1.000
    O252    O    0.00007   0.22996   0.13860   1.000
    O253    O    0.00008   0.72997   0.13861   1.000
    O254    O    0.50005   0.22996   0.13860   1.000
    O255    O    0.50006   0.72997   0.13862   1.000
    O256    O    0.37564   0.32620   0.11165   1.000
    O257    O    0.37564   0.82622   0.11161   1.000
    O258    O    0.87563   0.32619   0.11167   1.000
    O259    O    0.87564   0.82618   0.11171   1.000
    O260    O    0.39653   0.25986   0.00050   1.000
    O261    O    0.39653   0.75987   0.00048   1.000
    O262    O    0.89651   0.25986   0.00051   1.000
    O263    O    0.89651   0.75987   0.00052   1.000
    O264    O    0.04387   0.42490   0.19132   1.000
    O265    O    0.04387   0.92491   0.19133   1.000
    O266    O    0.54386   0.42490   0.19132   1.000
    O267    O    0.54387   0.92491   0.19132   1.000
    O268    O    0.05323   0.01040   0.11992   1.000
    O269    O    0.05324   0.51040   0.11991   1.000
    O270    O    0.55324   0.01039   0.11990   1.000
    O271    O    0.55324   0.51040   0.11991   1.000
    O272    O    0.01367   0.34277   0.02030   1.000
    O273    O    0.01368   0.84278   0.02029   1.000
    O274    O    0.51366   0.34277   0.02030   1.000
    O275    O    0.51367   0.84278   0.02030   1.000
    O276    O    0.05586   0.42546   0.96396   1.000
    O277    O    0.05586   0.92546   0.96395   1.000
    O278    O    0.55585   0.42545   0.96395   1.000
    O279    O    0.55586   0.92546   0.96390   1.000
    O280    O    0.42375   0.44822   0.06270   1.000
    O281    O    0.42375   0.94823   0.06270   1.000
    O282    O    0.92374   0.44822   0.06275   1.000
    O283    O    0.92374   0.94822   0.06275   1.000
    O284    O    0.31418   0.44467   0.09784   1.000
    O285    O    0.31419   0.94469   0.09784   1.000
    O286    O    0.81417   0.44467   0.09784   1.000
    O287    O    0.81418   0.94468   0.09784   1.000
    O288    O    0.15518   0.34987   0.25413   1.000
    O289    O    0.15518   0.84988   0.25413   1.000
    O290    O    0.65517   0.34987   0.25413   1.000
    O291    O    0.65517   0.84987   0.25413   1.000
    O292    O    0.22555   0.34249   0.13555   1.000
    O293    O    0.22556   0.84250   0.13555   1.000
    O294    O    0.72554   0.34250   0.13555   1.000
    O295    O    0.72555   0.84250   0.13555   1.000
    O296    O    0.26014   0.43476   0.28596   1.000
    O297    O    0.26016   0.93477   0.28597   1.000
    O298    O    0.76014   0.43476   0.28597   1.000
    O299    O    0.76014   0.93477   0.28597   1.000
    O300    O    0.24999   0.02005   0.36144   1.000
    O301    O    0.24999   0.52006   0.36140   1.000
    O302    O    0.74997   0.02005   0.36145   1.000
    O303    O    0.74999   0.52006   0.36145   1.000
    O304    O    0.12551   0.42352   0.38914   1.000
    O305    O    0.12551   0.92353   0.38915   1.000
    O306    O    0.62550   0.42351   0.38910   1.000
    O307    O    0.62551   0.92354   0.38910   1.000
    O308    O    0.14654   0.49020   0.49965   1.000
    O309    O    0.14654   0.99021   0.49966   1.000
    O310    O    0.64653   0.49021   0.49966   1.000
    O311    O    0.64653   0.99021   0.49965   1.000
    O312    O    0.29390   0.32512   0.30869   1.000
    O313    O    0.29390   0.82513   0.30869   1.000
    O314    O    0.79389   0.32512   0.30869   1.000
    O315    O    0.79389   0.82513   0.30869   1.000
    O316    O    0.30329   0.23959   0.38003   1.000
    O317    O    0.30329   0.73959   0.38003   1.000
    O318    O    0.80328   0.23958   0.38003   1.000
    O319    O    0.80329   0.73959   0.38004   1.000
    O320    O    0.26372   0.40723   0.47962   1.000
    O321    O    0.26373   0.90724   0.47960   1.000
    O322    O    0.76371   0.40723   0.47963   1.000
    O323    O    0.76372   0.90724   0.47963   1.000
    O324    O    0.30584   0.32450   0.53602   1.000
    O325    O    0.30584   0.82451   0.53602   1.000
    O326    O    0.80583   0.32450   0.53603   1.000
    O327    O    0.80583   0.82451   0.53600   1.000
    O328    O    0.17375   0.30174   0.43721   1.000
    O329    O    0.17375   0.80174   0.43721   1.000
    O330    O    0.67374   0.30174   0.43721   1.000
    O331    O    0.67374   0.80175   0.43721   1.000
    O332    O    0.06419   0.30529   0.40213   1.000
    O333    O    0.06419   0.80529   0.40210   1.000
    O334    O    0.56418   0.30529   0.40213   1.000
    O335    O    0.56418   0.80530   0.40213   1.000
    O336    O    0.09483   0.09980   0.75401   1.000
    O337    O    0.09483   0.59980   0.75400   1.000
    O338    O    0.59482   0.09980   0.75401   1.000
    O339    O    0.59482   0.59981   0.75401   1.000
    O340    O    0.02448   0.09245   0.63547   1.000
    O341    O    0.02448   0.59246   0.63546   1.000
    O342    O    0.52447   0.09245   0.63547   1.000
    O343    O    0.52448   0.59246   0.63547   1.000
    O344    O    0.48958   0.18475   0.78598   1.000
    O345    O    0.48959   0.68475   0.78598   1.000
    O346    O    0.98957   0.18475   0.78598   1.000
    O347    O    0.98957   0.68475   0.78597   1.000
    O348    O    0.49992   0.27005   0.86136   1.000
    O349    O    0.49993   0.77006   0.86134   1.000
    O350    O    0.99990   0.27005   0.86135   1.000
    O351    O    0.99990   0.77006   0.86134   1.000
    O352    O    0.12435   0.17381   0.88832   1.000
    O353    O    0.12435   0.67384   0.88825   1.000
    O354    O    0.62434   0.17380   0.88835   1.000
    O355    O    0.62435   0.67381   0.88834   1.000
    O356    O    0.10347   0.24015   0.99946   1.000
    O357    O    0.10347   0.74016   0.99944   1.000
    O358    O    0.60345   0.24015   0.99948   1.000
    O359    O    0.60346   0.74016   0.99947   1.000
    O360    O    0.45612   0.07511   0.80863   1.000
    O361    O    0.45612   0.57512   0.80860   1.000
    O362    O    0.95611   0.07511   0.80864   1.000
    O363    O    0.95611   0.57512   0.80863   1.000
    O364    O    0.44675   0.48962   0.88004   1.000
    O365    O    0.44677   0.98962   0.88003   1.000
    O366    O    0.94675   0.48961   0.88004   1.000
    O367    O    0.94674   0.98963   0.88005   1.000
    O368    O    0.48632   0.15724   0.97967   1.000
    O369    O    0.48632   0.65725   0.97966   1.000
    O370    O    0.98631   0.15724   0.97966   1.000
    O371    O    0.98631   0.65725   0.97965   1.000
    O372    O    0.44413   0.07455   0.03601   1.000
    O373    O    0.44414   0.57456   0.03600   1.000
    O374    O    0.94412   0.07455   0.03600   1.000
    O375    O    0.94412   0.57456   0.03599   1.000
    O376    O    0.07624   0.05179   0.93720   1.000
    O377    O    0.07625   0.55180   0.93720   1.000
    O378    O    0.57623   0.05179   0.93720   1.000
    O379    O    0.57624   0.55180   0.93720   1.000
    O380    O    0.18581   0.05533   0.90210   1.000
    O381    O    0.18581   0.55535   0.90210   1.000
    O382    O    0.68580   0.05533   0.90210   1.000
    O383    O    0.68581   0.55534   0.90212   1.000
    O384    O    0.34481   0.15014   0.74583   1.000
    O385    O    0.34482   0.65015   0.74583   1.000
    O386    O    0.84480   0.15014   0.74583   1.000
    O387    O    0.84480   0.65015   0.74583   1.000
    O388    O    0.27444   0.15751   0.86440   1.000
    O389    O    0.27444   0.65752   0.86440   1.000
    O390    O    0.77443   0.15752   0.86441   1.000
    O391    O    0.77443   0.65752   0.86441   1.000
    O392    O    0.23984   0.06525   0.71398   1.000
    O393    O    0.23984   0.56526   0.71398   1.000
    O394    O    0.73983   0.06525   0.71398   1.000
    O395    O    0.73983   0.56526   0.71398   1.000
    O396    O    0.24999   0.47996   0.63848   1.000
    O397    O    0.25000   0.97997   0.63849   1.000
    O398    O    0.74999   0.47996   0.63850   1.000
    O399    O    0.74999   0.97997   0.63849   1.000
    O400    O    0.37449   0.07651   0.61070   1.000
    O401    O    0.37449   0.57651   0.61079   1.000
    O402    O    0.87447   0.07649   0.61081   1.000
    O403    O    0.87447   0.57650   0.61080   1.000
    O404    O    0.35345   0.00981   0.50028   1.000
    O405    O    0.35346   0.50982   0.50029   1.000
    O406    O    0.85344   0.00980   0.50030   1.000
    O407    O    0.85345   0.50981   0.50030   1.000
    O408    O    0.20610   0.17489   0.69127   1.000
    O409    O    0.20610   0.67490   0.69127   1.000
    O410    O    0.70608   0.17489   0.69127   1.000
    O411    O    0.70609   0.67490   0.69127   1.000
    O412    O    0.19671   0.26043   0.61993   1.000
    O413    O    0.19670   0.76043   0.61992   1.000
    O414    O    0.69668   0.26042   0.61992   1.000
    O415    O    0.69669   0.76043   0.61993   1.000
    O416    O    0.23627   0.09278   0.52032   1.000
    O417    O    0.23627   0.59279   0.52032   1.000
    O418    O    0.73626   0.09278   0.52030   1.000
    O419    O    0.73626   0.59279   0.52032   1.000
    O420    O    0.19415   0.17551   0.46393   1.000
    O421    O    0.19416   0.67552   0.46393   1.000
    O422    O    0.69414   0.17551   0.46394   1.000
    O423    O    0.69415   0.67552   0.46393   1.000
    O424    O    0.32624   0.19828   0.56275   1.000
    O425    O    0.32625   0.69829   0.56275   1.000
    O426    O    0.82623   0.19827   0.56275   1.000
    O427    O    0.82624   0.69828   0.56275   1.000
    O428    O    0.43580   0.19473   0.59783   1.000
    O429    O    0.43581   0.69473   0.59783   1.000
    O430    O    0.93579   0.19472   0.59783   1.000
    O431    O    0.93580   0.69473   0.59783   1.000
loop_
    _geom_bond_atom_site_label_1
    _geom_bond_atom_site_label_2
    _geom_bond_distance
    _geom_bond_site_symmetry_2
    _ccdc_geom_bond_type
    Zn35   O261      2.10389      .   S
    Zn35   O255      2.12107      .   S
    Zn35   O349      2.12167  1_554   S
    Zn35   O359      2.10381  1_554   S
    Zn43   O373      2.12155      .   S
    Zn43   O271      2.09265      .   S
    Zn43   O364      2.09327  1_554   S
    Zn43   O278      2.12170  1_554   S
    O261   C153      1.25319      .   S
    O260   C152      1.25322      .   S
    O260   Zn34      2.10391      .   S
    O262   C154      1.25313      .   S
    O262   Zn32      2.10443  1_655   S
    O263   C155      1.25319      .   S
    O263   Zn33      2.10451  1_654   S
    H71    C166      1.10216      .   S
    H69    C164      1.10225      .   S
    H70    C167      1.10196  1_545   S
    H68    C165      1.10159  1_545   S
    O273   Zn3       2.05911  1_455   S
    O273   C161      1.29410  1_554   S
    O272   Zn2       2.05902  1_455   S
    O272   C160      1.29425  1_554   S
    O274   Zn0       2.05885      .   S
    O274   C162      1.29410  1_554   S
    O275   Zn1       2.05865      .   S
    O275   C163      1.29412  1_554   S
    C209   O373      1.24783      .   S
    C209   H113      1.10310      .   S
    C209   O369      1.29369  1_554   S
    C211   O375      1.24779      .   S
    C211   H115      1.10262      .   S
    C211   O371      1.29417  1_554   S
    C210   O374      1.24780      .   S
    C210   H114      1.10266      .   S
    C210   O370      1.29413  1_554   S
    C208   O372      1.24780      .   S
    C208   H112      1.10266      .   S
    C208   O368      1.29410  1_554   S
    O375   Zn41      2.12178  1_654   S
    O374   Zn40      2.12179  1_655   S
    O372   Zn42      2.12157  1_544   S
    H57    C153      1.10582      .   S
    H56    C152      1.10585      .   S
    H58    C154      1.10582      .   S
    H59    C155      1.10584      .   S
    C153   O257      1.28921      .   S
    C152   O256      1.28918      .   S
    C154   O258      1.28930      .   S
    C155   O259      1.28926      .   S
    C165   O281      1.28935      .   S
    C165   O285      1.25481      .   S
    C166   O282      1.28940      .   S
    C166   O286      1.25461      .   S
    C167   O283      1.28937      .   S
    C167   O287      1.25452      .   S
    C164   O280      1.28931      .   S
    C164   O284      1.25455      .   S
    O280   Zn0       2.09735      .   S
    O281   Zn1       2.09729      .   S
    O283   Zn3       2.09692      .   S
    O282   Zn2       2.09696      .   S
    O285   Zn13      2.06783      .   S
    O287   Zn15      2.06781      .   S
    O286   Zn14      2.06775      .   S
    O284   Zn12      2.06776      .   S
    O257   Zn1       2.15966      .   S
    O256   Zn0       2.15973      .   S
    O258   Zn2       2.15974      .   S
    O259   Zn3       2.15982      .   S
    O270   C159      1.25123  1_545   S
    O270   Zn42      2.09269  1_544   S
    O271   C158      1.25133      .   S
    O269   C156      1.25142      .   S
    O269   Zn41      2.09269  1_554   S
    O268   C157      1.25127  1_545   S
    O268   Zn40      2.09261      .   S
    H72    C168      1.10332      .   S
    H75    C171      1.10290      .   S
    H73    C169      1.10288      .   S
    H74    C170      1.10332      .   S
    Zn1    O267      2.14877      .   S
    Zn1    O241      2.15541      .   S
    Zn0    O266      2.14866      .   S
    Zn0    O240      2.15578      .   S
    Zn2    O264      2.14896  1_655   S
    Zn2    O242      2.15577      .   S
    Zn3    O265      2.14898  1_655   S
    Zn3    O243      2.15588      .   S
    O295   C171      1.25817      .   S
    O295   Zn15      2.05687      .   S
    O294   C170      1.25854      .   S
    O294   Zn14      2.05685      .   S
    O293   C169      1.25815      .   S
    O293   Zn13      2.05683      .   S
    O292   C168      1.25817      .   S
    O292   Zn12      2.05683      .   S
    O252   C148      1.25096      .   S
    O252   Zn32      2.12079      .   S
    O254   C150      1.25120      .   S
    O254   Zn34      2.12079      .   S
    O253   C149      1.25073      .   S
    O253   Zn33      2.12108  1_554   S
    O255   C151      1.25073      .   S
    C171   O291      1.28407      .   S
    C169   O289      1.28406      .   S
    C168   O288      1.28407      .   S
    C170   O290      1.28323      .   S
    C159   O267      1.28513      .   S
    C159   H63       1.10738      .   S
    C158   O266      1.28513      .   S
    C158   H62       1.10750      .   S
    C156   O264      1.28511      .   S
    C156   H60       1.10722      .   S
    C157   O265      1.28512      .   S
    C157   H61       1.10736      .   S
    Zn12   O296      2.11974      .   S
    Zn13   O297      2.11975      .   S
    Zn14   O298      2.11978      .   S
    Zn15   O299      2.11972      .   S
    C148   O248      1.28707      .   S
    C148   H52       1.10571      .   S
    C151   O251      1.28709      .   S
    C151   H55       1.10565      .   S
    C149   O249      1.28708      .   S
    C149   H53       1.10574      .   S
    C150   O250      1.28708      .   S
    C150   H54       1.10565      .   S
    O248   Zn4       2.11914      .   S
    O249   Zn5       2.11961      .   S
    O251   Zn7       2.11954      .   S
    O250   Zn6       2.11950      .   S
    H77    C172      1.10569      .   S
    H78    C175      1.10539  1_545   S
    H76    C173      1.10543  1_545   S
    H79    C174      1.10572      .   S
    O241   C145      1.28382      .   S
    O240   C144      1.28326      .   S
    O242   C146      1.28322      .   S
    O243   C147      1.28320      .   S
    O290   Zn10      2.15638      .   S
    O289   Zn9       2.15638      .   S
    O291   Zn11      2.15638      .   S
    O288   Zn8       2.15637      .   S
    H85    C181      1.10698      .   S
    H86    C182      1.10738      .   S
    H84    C180      1.10739      .   S
    H87    C183      1.10735      .   S
    O296   C172      1.28708      .   S
    O299   C175      1.28704      .   S
    O298   C174      1.28708      .   S
    O297   C173      1.28706      .   S
    C172   O301      1.25031      .   S
    C175   O302      1.25068  1_565   S
    C173   O300      1.25052  1_565   S
    C174   O303      1.25069      .   S
    O312   C180      1.28523      .   S
    O312   Zn8       2.14799      .   S
    O313   C181      1.28513      .   S
    O313   Zn9       2.14800      .   S
    O314   C182      1.28523      .   S
    O314   Zn10      2.14797      .   S
    O315   C183      1.28524      .   S
    O315   Zn11      2.14795      .   S
    Zn4    O246      2.05684  1_455   S
    Zn4    O332      2.06796      .   S
    Zn7    O245      2.05625      .   S
    Zn7    O335      2.06753      .   S
    Zn6    O244      2.05619      .   S
    Zn6    O334      2.06747      .   S
    Zn5    O247      2.05659  1_455   S
    Zn5    O333      2.06716      .   S
    C181   O317      1.25189      .   S
    C180   O316      1.25133      .   S
    C182   O318      1.25136      .   S
    C183   O319      1.25141      .   S
    C145   O245      1.25857      .   S
    C145   H49       1.10340      .   S
    C146   O246      1.25859      .   S
    C146   H50       1.10337      .   S
    C144   O244      1.25853      .   S
    C144   H48       1.10336      .   S
    C147   O247      1.25859      .   S
    C147   H51       1.10329      .   S
    O301   Zn37      2.12039      .   S
    O300   Zn36      2.11981      .   S
    O302   Zn38      2.11967      .   S
    O303   Zn39      2.11981      .   S
    Zn8    O304      2.15743      .   S
    Zn8    O328      2.09745      .   S
    Zn8    O320      2.05870      .   S
    Zn11   O307      2.15742      .   S
    Zn11   O331      2.09746      .   S
    Zn11   O323      2.05880      .   S
    Zn10   O306      2.15729      .   S
    Zn10   O330      2.09750      .   S
    Zn10   O322      2.05879      .   S
    Zn9    O305      2.15739      .   S
    Zn9    O329      2.09751      .   S
    Zn9    O321      2.05848      .   S
    O316   Zn44      2.09291      .   S
    O317   Zn45      2.09288      .   S
    O318   Zn46      2.09289      .   S
    O319   Zn47      2.09284      .   S
    O307   C179      1.28929      .   S
    O306   C178      1.28960      .   S
    O304   C176      1.28905      .   S
    O305   C177      1.28907      .   S
    O333   C189      1.25473      .   S
    O334   C190      1.25459      .   S
    O335   C191      1.25457      .   S
    O332   C188      1.25455      .   S
    H139   C235      1.10270      .   S
    H136   C232      1.10263      .   S
    H137   C233      1.10267      .   S
    H138   C234      1.10269      .   S
    O328   C188      1.28940      .   S
    O329   C189      1.28937      .   S
    O330   C190      1.28940      .   S
    O331   C191      1.28940      .   S
    C189   H93       1.10223      .   S
    C188   H92       1.10217      .   S
    C190   H94       1.10212      .   S
    C191   H95       1.10212      .   S
    C179   H83       1.10586      .   S
    C179   O311      1.25318      .   S
    C178   H82       1.10587      .   S
    C178   O310      1.25318      .   S
    C177   H81       1.10587      .   S
    C177   O309      1.25318      .   S
    C176   H80       1.10587      .   S
    C176   O308      1.25313      .   S
    O423   C235      1.24775      .   S
    O423   Zn47      2.12216      .   S
    O420   C232      1.24775      .   S
    O420   Zn44      2.12215      .   S
    O421   C233      1.24775      .   S
    O421   Zn45      2.12218      .   S
    O422   C234      1.24774      .   S
    O422   Zn46      2.12213      .   S
    C235   O419      1.29378      .   S
    C232   O416      1.29382      .   S
    C233   O417      1.29383      .   S
    C234   O418      1.29358      .   S
    O321   C185      1.29403      .   S
    O320   C184      1.29386      .   S
    O322   C186      1.29385      .   S
    O323   C187      1.29386      .   S
    O308   Zn37      2.10405      .   S
    O311   Zn38      2.10384  1_565   S
    O309   Zn36      2.10376  1_565   S
    O310   Zn39      2.10399      .   S
    Zn36   O404      2.10397      .   S
    Zn36   O397      2.11956  1_545   S
    Zn37   O405      2.10399      .   S
    Zn37   O396      2.11952      .   S
    Zn38   O406      2.10401      .   S
    Zn38   O399      2.11956  1_545   S
    Zn46   O326      2.12212      .   S
    Zn46   O414      2.09283      .   S
    Zn45   O325      2.12212      .   S
    Zn45   O413      2.09286      .   S
    Zn47   O327      2.12205      .   S
    Zn47   O415      2.09293      .   S
    Zn44   O324      2.12215      .   S
    Zn44   O412      2.09284      .   S
    Zn39   O407      2.10399      .   S
    Zn39   O398      2.11966      .   S
    O404   C224      1.25313      .   S
    O405   C225      1.25314      .   S
    O407   C227      1.25314      .   S
    O406   C226      1.25313      .   S
    H142   C238      1.10226      .   S
    H140   C236      1.10183      .   S
    H141   C237      1.10221      .   S
    H143   C239      1.10214      .   S
    O418   Zn26      2.05916      .   S
    O419   Zn27      2.05891      .   S
    O417   Zn25      2.05881      .   S
    O416   Zn24      2.05892      .   S
    C185   O325      1.24775      .   S
    C185   H89       1.10269      .   S
    C184   O324      1.24775      .   S
    C184   H88       1.10268      .   S
    C186   O326      1.24777      .   S
    C186   H90       1.10267      .   S
    C187   O327      1.24775      .   S
    C187   H91       1.10267      .   S
    H128   C224      1.10589      .   S
    H129   C225      1.10587      .   S
    H130   C226      1.10587      .   S
    H131   C227      1.10586      .   S
    C224   O400      1.28837      .   S
    C225   O401      1.28909      .   S
    C226   O402      1.28910      .   S
    C227   O403      1.28900      .   S
    C236   O424      1.28943      .   S
    C236   O428      1.25482      .   S
    C239   O427      1.28940      .   S
    C239   O431      1.25459      .   S
    C238   O426      1.28940      .   S
    C238   O430      1.25455      .   S
    C237   O425      1.28940      .   S
    C237   O429      1.25457      .   S
    O425   Zn25      2.09749      .   S
    O424   Zn24      2.09756      .   S
    O426   Zn26      2.09748      .   S
    O427   Zn27      2.09751      .   S
    O428   Zn20      2.06750      .   S
    O429   Zn21      2.06749      .   S
    O430   Zn22      2.06745      .   S
    O431   Zn23      2.06749      .   S
    O400   Zn24      2.15746      .   S
    O401   Zn25      2.15736      .   S
    O403   Zn27      2.15741      .   S
    O402   Zn26      2.15741      .   S
    O413   C229      1.25037      .   S
    O414   C230      1.25133      .   S
    O412   C228      1.25138      .   S
    O415   C231      1.25126      .   S
    H98    C194      1.10365      .   S
    H97    C193      1.10336      .   S
    H99    C195      1.10336      .   S
    H96    C192      1.10285      .   S
    Zn25   O409      2.14800      .   S
    Zn25   O385      2.15650      .   S
    Zn24   O408      2.14792      .   S
    Zn24   O384      2.15638      .   S
    Zn26   O410      2.14798      .   S
    Zn26   O386      2.15636      .   S
    Zn27   O411      2.14796      .   S
    Zn27   O387      2.15636      .   S
    O341   C193      1.25859      .   S
    O341   Zn23      2.05656  1_455   S
    O343   C195      1.25858      .   S
    O343   Zn21      2.05622      .   S
    O340   C192      1.25821      .   S
    O340   Zn22      2.05652  1_455   S
    O342   C194      1.25858      .   S
    O342   Zn20      2.05623      .   S
    O396   C221      1.25073      .   S
    O399   C222      1.25059  1_565   S
    O397   C220      1.25050  1_565   S
    O398   C223      1.25084      .   S
    C192   O336      1.28405      .   S
    C193   O337      1.28321      .   S
    C195   O339      1.28321      .   S
    C194   O338      1.28322      .   S
    C229   O409      1.28542      .   S
    C229   H133      1.10828      .   S
    C231   O411      1.28523      .   S
    C231   H135      1.10741      .   S
    C230   O410      1.28524      .   S
    C230   H134      1.10749      .   S
    C228   O408      1.28522      .   S
    C228   H132      1.10744      .   S
    Zn23   O347      2.11945      .   S
    Zn22   O346      2.11964      .   S
    Zn21   O345      2.11965      .   S
    Zn20   O344      2.11959      .   S
    C221   O393      1.28706      .   S
    C221   H124      1.10575      .   S
    C220   O392      1.28706      .   S
    C220   H125      1.10544  1_545   S
    C222   O394      1.28707      .   S
    C222   H127      1.10545  1_545   S
    C223   O395      1.28707      .   S
    C223   H126      1.10561      .   S
    O395   Zn31      2.11985      .   S
    O394   Zn30      2.11987      .   S
    O392   Zn28      2.11978      .   S
    O393   Zn29      2.11980      .   S
    H103   C199      1.11453      .   S
    H101   C197      1.10563      .   S
    H102   C198      1.10567      .   S
    H100   C196      1.10476      .   S
    O384   C216      1.28322      .   S
    O385   C217      1.28323      .   S
    O386   C218      1.28320      .   S
    O387   C219      1.28323      .   S
    O337   Zn17      2.15574      .   S
    O339   Zn19      2.15575      .   S
    O338   Zn18      2.15577      .   S
    O336   Zn16      2.15574      .   S
    H108   C204      1.10745      .   S
    H111   C207      1.10745      .   S
    H109   C205      1.10747      .   S
    H110   C206      1.10742      .   S
    O347   C199      1.28709      .   S
    O344   C196      1.28703      .   S
    O345   C197      1.28709      .   S
    O346   C198      1.28708      .   S
    C196   O348      1.25169      .   S
    C199   O351      1.25074      .   S
    C197   O349      1.25072      .   S
    C198   O350      1.25069      .   S
    O361   C205      1.28520      .   S
    O361   Zn19      2.14888      .   S
    O360   C204      1.28511      .   S
    O360   Zn18      2.14866      .   S
    O363   C207      1.28512      .   S
    O363   Zn17      2.14899  1_655   S
    O362   C206      1.28510      .   S
    O362   Zn16      2.14896  1_655   S
    Zn29   O389      2.05683      .   S
    Zn29   O381      2.06761      .   S
    Zn28   O388      2.05682      .   S
    Zn28   O380      2.06768      .   S
    Zn31   O391      2.05682      .   S
    Zn31   O383      2.06780      .   S
    Zn30   O390      2.05682      .   S
    Zn30   O382      2.06759      .   S
    C204   O365      1.25124  1_545   S
    C207   O366      1.25142      .   S
    C205   O364      1.25135      .   S
    C206   O367      1.25121  1_545   S
    C216   O388      1.25849      .   S
    C216   H120      1.10331      .   S
    C217   O389      1.25849      .   S
    C217   H121      1.10330      .   S
    C218   O390      1.25855      .   S
    C218   H122      1.10332      .   S
    C219   O391      1.25852      .   S
    C219   H123      1.10333      .   S
    O351   Zn33      2.12152  1_655   S
    O350   Zn32      2.12152  1_656   S
    O348   Zn34      2.12137  1_556   S
    Zn17   O353      2.15977      .   S
    Zn17   O377      2.09693      .   S
    Zn17   O371      2.05901  1_455   S
    Zn16   O352      2.15967      .   S
    Zn16   O376      2.09697      .   S
    Zn16   O370      2.05906  1_455   S
    Zn18   O354      2.15968      .   S
    Zn18   O378      2.09698      .   S
    Zn18   O368      2.05893      .   S
    Zn19   O355      2.15968      .   S
    Zn19   O379      2.09697      .   S
    Zn19   O369      2.05885      .   S
    O365   Zn42      2.09299      .   S
    O366   Zn41      2.09330  1_655   S
    O367   Zn40      2.09325  1_666   S
    O353   C201      1.28927      .   S
    O352   C200      1.28887      .   S
    O355   C203      1.28923      .   S
    O354   C202      1.28917      .   S
    O380   C212      1.25469      .   S
    O381   C213      1.25468      .   S
    O382   C214      1.25468      .   S
    O383   C215      1.25455      .   S
    H65    C161      1.10269      .   S
    H66    C162      1.10264      .   S
    H64    C160      1.10249      .   S
    H67    C163      1.10273      .   S
    O379   C215      1.28937      .   S
    O378   C214      1.28937      .   S
    O377   C213      1.28938      .   S
    O376   C212      1.28938      .   S
    C212   H117      1.10194  1_545   S
    C213   H116      1.10227      .   S
    C214   H119      1.10142  1_545   S
    C215   H118      1.10222      .   S
    C200   H104      1.10587      .   S
    C200   O356      1.25351      .   S
    C201   H105      1.10582      .   S
    C201   O357      1.25322      .   S
    C203   H107      1.10583      .   S
    C203   O359      1.25313      .   S
    C202   H106      1.10585      .   S
    C202   O358      1.25320      .   S
    O279   C163      1.24784      .   S
    O279   Zn42      2.12161      .   S
    O277   C161      1.24778      .   S
    O277   Zn40      2.12141  1_566   S
    O278   C162      1.24780      .   S
    O276   C160      1.24779      .   S
    O276   Zn41      2.12160      .   S
    O357   Zn33      2.10395      .   S
    O356   Zn32      2.10388  1_556   S
    O358   Zn34      2.10379  1_556   S
    O240   Zn12      2.16275      .   S
    O241   Zn13      2.16245      .   S
    O242   Zn14      2.16277      .   S
    O243   Zn15      2.16280      .   S
    O248   Zn2       2.14304  1_455   S
    O249   Zn3       2.14306  1_455   S
    O250   Zn0       2.14291      .   S
    O251   Zn1       2.14300      .   S
    O256   Zn12      2.17028      .   S
    O257   Zn13      2.17038      .   S
    O258   Zn14      2.17018      .   S
    O259   Zn15      2.17020      .   S
    O264   Zn4       2.19743      .   S
    O265   Zn5       2.19790      .   S
    O266   Zn6       2.19799      .   S
    O267   Zn7       2.19787      .   S
    O272   Zn32      2.18072      .   S
    O273   Zn33      2.18067  1_554   S
    O274   Zn34      2.18070      .   S
    O275   Zn35      2.18071      .   S
    O280   Zn43      2.17428      .   S
    O281   Zn42      2.17389  1_554   S
    O282   Zn41      2.17499  1_654   S
    O283   Zn40      2.17461  1_665   S
    O288   Zn4       2.16090      .   S
    O289   Zn5       2.16116      .   S
    O290   Zn6       2.16117      .   S
    O291   Zn7       2.16113      .   S
    O296   Zn8       2.14318      .   S
    O297   Zn9       2.14317      .   S
    O298   Zn10      2.14316      .   S
    O299   Zn11      2.14316      .   S
    O304   Zn4       2.17282      .   S
    O305   Zn5       2.17247      .   S
    O306   Zn6       2.17204      .   S
    O307   Zn7       2.17229      .   S
    O312   Zn12      2.19717      .   S
    O313   Zn13      2.19719      .   S
    O314   Zn14      2.19719      .   S
    O315   Zn15      2.19708      .   S
    O320   Zn37      2.18072      .   S
    O321   Zn36      2.18038  1_565   S
    O322   Zn39      2.18072      .   S
    O323   Zn38      2.18030  1_565   S
    O328   Zn44      2.17307      .   S
    O329   Zn45      2.17306      .   S
    O330   Zn46      2.17304      .   S
    O331   Zn47      2.17307      .   S
    O336   Zn28      2.16270      .   S
    O337   Zn29      2.16282      .   S
    O338   Zn30      2.16272      .   S
    O339   Zn31      2.16272      .   S
    O344   Zn18      2.14285      .   S
    O345   Zn19      2.14283      .   S
    O346   Zn16      2.14305  1_655   S
    O347   Zn17      2.14309  1_655   S
    O352   Zn28      2.17032      .   S
    O353   Zn29      2.17014      .   S
    O354   Zn30      2.17039      .   S
    O355   Zn31      2.17034      .   S
    O360   Zn20      2.19790      .   S
    O361   Zn21      2.19752      .   S
    O362   Zn22      2.19801      .   S
    O363   Zn23      2.19787      .   S
    O368   Zn34      2.18071  1_556   S
    O369   Zn35      2.18076  1_556   S
    O370   Zn32      2.18079  1_656   S
    O371   Zn33      2.18080  1_655   S
    O376   Zn40      2.17488  1_556   S
    O377   Zn41      2.17491      .   S
    O378   Zn42      2.17484  1_545   S
    O379   Zn43      2.17488  1_556   S
    O384   Zn20      2.16115      .   S
    O385   Zn21      2.16114      .   S
    O386   Zn22      2.16121      .   S
    O387   Zn23      2.16119      .   S
    O392   Zn24      2.14313      .   S
    O393   Zn25      2.14323      .   S
    O394   Zn26      2.14309      .   S
    O395   Zn27      2.14308      .   S
    O400   Zn20      2.17309      .   S
    O401   Zn21      2.17250      .   S
    O402   Zn22      2.17247      .   S
    O403   Zn23      2.17255      .   S
    O408   Zn28      2.19710      .   S
    O409   Zn29      2.19708      .   S
    O410   Zn30      2.19720      .   S
    O411   Zn31      2.19724      .   S
    O416   Zn36      2.18073      .   S
    O417   Zn37      2.18068      .   S
    O418   Zn38      2.18067      .   S
    O419   Zn39      2.18071      .   S
    O424   Zn44      2.17302      .   S
    O425   Zn45      2.17301      .   S
    O426   Zn46      2.17304      .   S
    O427   Zn47      2.17302      .   S
