# CIF file generated by openbabel 2.4.90, see http://openbabel.sf.net
data_I
_chemical_name_common ''
_cell_length_a 10.412
_cell_length_b 18.782
_cell_length_c 27.669
_cell_angle_alpha 90.002
_cell_angle_beta 89.095
_cell_angle_gamma 89.994
_space_group_name_H-M_alt 'P 1'
_space_group_name_Hall 'P 1'
loop_
    _symmetry_equiv_pos_as_xyz
    x,y,z
loop_
    _atom_site_label
    _atom_site_type_symbol
    _atom_site_fract_x
    _atom_site_fract_y
    _atom_site_fract_z
    _atom_site_occupancy
    La0     La   0.92354   0.89716   0.52308   1.000
    La1     La   0.07640   0.39719   0.97708   1.000
    La2     La   0.57638   0.39718   0.97708   1.000
    La3     La   0.07637   0.10280   0.47703   1.000
    La4     La   0.57636   0.10281   0.47703   1.000
    La5     La   0.42352   0.60283   0.02305   1.000
    La6     La   0.92352   0.60284   0.02305   1.000
    La7     La   0.42354   0.89716   0.52308   1.000
    C8      C    0.32165   0.22523   0.50400   1.000
    C9      C    0.82164   0.22522   0.50460   1.000
    C10     C    0.17825   0.77477   0.49542   1.000
    C11     C    0.67825   0.77477   0.49541   1.000
    C12     C    0.17513   0.90298   0.61208   1.000
    C13     C    0.67512   0.90298   0.61207   1.000
    C14     C    0.16797   0.56666   0.93974   1.000
    C15     C    0.66796   0.56666   0.93974   1.000
    C16     C    0.32165   0.27474   0.00460   1.000
    C17     C    0.82165   0.27475   0.00460   1.000
    C18     C    0.32489   0.40304   0.88809   1.000
    C19     C    0.82488   0.40303   0.88800   1.000
    C20     C    0.33188   0.06667   0.56039   1.000
    C21     C    0.83188   0.06668   0.56039   1.000
    C22     C    0.32483   0.09695   0.38803   1.000
    C23     C    0.82483   0.09695   0.38804   1.000
    C24     C    0.33190   0.43333   0.06044   1.000
    C25     C    0.83191   0.43333   0.06043   1.000
    C26     C    0.17825   0.72524   0.99541   1.000
    C27     C    0.67824   0.72523   0.99539   1.000
    C28     C    0.17506   0.59701   0.11202   1.000
    C29     C    0.67506   0.59702   0.11202   1.000
    C30     C    0.16799   0.93331   0.43976   1.000
    C31     C    0.66799   0.93331   0.43970   1.000
    O32     O    0.27254   0.80019   0.51878   1.000
    O33     O    0.77254   0.80019   0.51878   1.000
    O34     O    0.07147   0.80688   0.48975   1.000
    O35     O    0.57147   0.80688   0.48970   1.000
    O36     O    0.28447   0.91991   0.59456   1.000
    O37     O    0.78446   0.91991   0.59455   1.000
    O38     O    0.07608   0.89034   0.58708   1.000
    O39     O    0.57606   0.89034   0.58707   1.000
    O40     O    0.27963   0.57498   0.95560   1.000
    O41     O    0.77962   0.57497   0.95561   1.000
    O42     O    0.07738   0.53390   0.96378   1.000
    O43     O    0.57738   0.53389   0.96378   1.000
    O44     O    0.22742   0.30021   0.98122   1.000
    O45     O    0.72742   0.30020   0.98122   1.000
    O46     O    0.42844   0.30682   0.01028   1.000
    O47     O    0.92845   0.30683   0.01028   1.000
    O48     O    0.21569   0.42007   0.90571   1.000
    O49     O    0.71567   0.42004   0.90570   1.000
    O50     O    0.42408   0.39035   0.91301   1.000
    O51     O    0.92408   0.39035   0.91301   1.000
    O52     O    0.22024   0.07499   0.54450   1.000
    O53     O    0.72024   0.07499   0.54449   1.000
    O54     O    0.42254   0.03388   0.53641   1.000
    O55     O    0.92254   0.03388   0.53641   1.000
    O56     O    0.22740   0.19978   0.48120   1.000
    O57     O    0.72740   0.19978   0.48121   1.000
    O58     O    0.42846   0.19315   0.51026   1.000
    O59     O    0.92845   0.19315   0.51026   1.000
    O60     O    0.21561   0.07993   0.40563   1.000
    O61     O    0.71562   0.07993   0.40564   1.000
    O62     O    0.42399   0.10963   0.41297   1.000
    O63     O    0.92399   0.10963   0.41297   1.000
    O64     O    0.22025   0.42502   0.04455   1.000
    O65     O    0.72026   0.42502   0.04454   1.000
    O66     O    0.42255   0.46611   0.03645   1.000
    O67     O    0.92255   0.46613   0.03645   1.000
    O68     O    0.27253   0.69981   0.01878   1.000
    O69     O    0.77252   0.69981   0.01878   1.000
    O70     O    0.07148   0.69314   0.98973   1.000
    O71     O    0.57147   0.69313   0.98970   1.000
    O72     O    0.28436   0.58007   0.09440   1.000
    O73     O    0.78436   0.58008   0.09445   1.000
    O74     O    0.07595   0.60966   0.08706   1.000
    O75     O    0.57593   0.60966   0.08706   1.000
    O76     O    0.27965   0.92499   0.45563   1.000
    O77     O    0.77965   0.92499   0.45564   1.000
    O78     O    0.07740   0.96608   0.46381   1.000
    O79     O    0.57739   0.96608   0.46381   1.000
loop_
    _geom_bond_atom_site_label_1
    _geom_bond_atom_site_label_2
    _geom_bond_distance
    _geom_bond_site_symmetry_2
    _ccdc_geom_bond_type
    C17    O47       1.27660      .   S
    C17    O45       1.27655  1_554   S
    C16    O46       1.27656      .   S
    C16    O44       1.27668  1_554   S
    O46    La2       2.46027  1_554   S
    O47    La1       2.46031  1_654   S
    O68    La5       2.41005      .   S
    O68    C26       1.27668  1_554   S
    O69    La6       2.41004      .   S
    O69    C27       1.27682  1_554   S
    La5    O66       2.59444      .   S
    La5    O75       2.40006      .   S
    La5    O72       2.46772      .   S
    La5    O40       2.46773  1_554   S
    La5    O71       2.46098  1_554   S
    La6    O67       2.59440      .   S
    La6    O74       2.40014  1_655   S
    La6    O73       2.46881      .   S
    La6    O41       2.46765  1_554   S
    La6    O70       2.46082  1_654   S
    O67    C25       1.30028      .   S
    O66    C24       1.30036      .   S
    O65    C25       1.25905      .   S
    O65    La2       2.46779  1_554   S
    O64    C24       1.25907      .   S
    O64    La1       2.46781  1_554   S
    O75    C29       1.27317      .   S
    O74    C28       1.27314      .   S
    O72    C28       1.27137      .   S
    O73    C29       1.27086      .   S
    C22    O60       1.27089      .   S
    C22    O62       1.27330      .   S
    C23    O61       1.27087      .   S
    C23    O63       1.27316      .   S
    O60    La3       2.46953      .   S
    O61    La4       2.46942      .   S
    O63    La3       2.40090  1_655   S
    O62    La4       2.40080      .   S
    C31    O77       1.25968      .   S
    C31    O79       1.30139      .   S
    C30    O76       1.25897      .   S
    C30    O78       1.30052      .   S
    O76    La7       2.46759      .   S
    O77    La0       2.46743      .   S
    O79    La4       2.59382  1_565   S
    O78    La3       2.59380  1_565   S
    La3    O56       2.41037      .   S
    La3    O59       2.45997  1_455   S
    La3    O52       2.46780      .   S
    La4    O57       2.41041      .   S
    La4    O58       2.45983      .   S
    La4    O53       2.46769      .   S
    O56    C8        1.26845      .   S
    O57    C9        1.27675      .   S
    O35    C11       1.27679      .   S
    O35    La7       2.46065      .   S
    O34    C10       1.27660      .   S
    O34    La0       2.46019  1_455   S
    C11    O33       1.27666      .   S
    C10    O32       1.27662      .   S
    C8     O58       1.27893      .   S
    C9     O59       1.27658      .   S
    O32    La7       2.41032      .   S
    O33    La0       2.41033      .   S
    La0    O55       2.59423  1_565   S
    La0    O38       2.40070  1_655   S
    La0    O37       2.46973      .   S
    La7    O54       2.59429  1_565   S
    La7    O39       2.40040      .   S
    La7    O36       2.46986      .   S
    O55    C21       1.30032      .   S
    O54    C20       1.30026      .   S
    O53    C21       1.25905      .   S
    O52    C20       1.25898      .   S
    O39    C13       1.27323      .   S
    O38    C12       1.27321      .   S
    O37    C13       1.27079      .   S
    O36    C12       1.27082      .   S
    C19    O49       1.27169      .   S
    C19    O51       1.27467      .   S
    C18    O48       1.27087      .   S
    C18    O50       1.27329      .   S
    O49    La2       2.46944      .   S
    O48    La1       2.46926      .   S
    O51    La1       2.40068  1_655   S
    O50    La2       2.40059      .   S
    C15    O41       1.25900      .   S
    C15    O43       1.30046      .   S
    C14    O40       1.25889      .   S
    C14    O42       1.30039      .   S
    O43    La2       2.59388      .   S
    O42    La1       2.59390      .   S
    La2    O45       2.41014      .   S
    La1    O44       2.41013      .   S
    O71    C27       1.27666      .   S
    O70    C26       1.27657      .   S
    O42    La6       2.61706  1_456   S
    O43    La5       2.61704  1_556   S
    O54    La4       2.61870      .   S
    O55    La3       2.61879  1_655   S
    O66    La2       2.61853  1_554   S
    O67    La1       2.61862  1_654   S
    O78    La0       2.61708  1_455   S
    O79    La7       2.61704      .   S
