# CIF file generated by openbabel 2.4.90, see http://openbabel.sf.net
data_I
_chemical_name_common ''
_cell_length_a 10.412
_cell_length_b 18.782
_cell_length_c 27.669
_cell_angle_alpha 90.002
_cell_angle_beta 89.095
_cell_angle_gamma 89.994
_space_group_name_H-M_alt 'P 1'
_space_group_name_Hall 'P 1'
loop_
    _symmetry_equiv_pos_as_xyz
    x,y,z
loop_
    _atom_site_label
    _atom_site_type_symbol
    _atom_site_fract_x
    _atom_site_fract_y
    _atom_site_fract_z
    _atom_site_occupancy
    C0      C    0.32165   0.22523   0.50400   1.000
    C1      C    0.82164   0.22522   0.50460   1.000
    C2      C    0.17825   0.77477   0.49542   1.000
    C3      C    0.67825   0.77477   0.49541   1.000
    C4      C    0.17513   0.90298   0.61208   1.000
    C5      C    0.67512   0.90298   0.61207   1.000
    C6      C    0.16797   0.56666   0.93974   1.000
    C7      C    0.66796   0.56666   0.93974   1.000
    C8      C    0.32165   0.27474   0.00460   1.000
    C9      C    0.82165   0.27475   0.00460   1.000
    C10     C    0.32489   0.40304   0.88809   1.000
    C11     C    0.82488   0.40303   0.88800   1.000
    C12     C    0.33188   0.06667   0.56039   1.000
    C13     C    0.83188   0.06668   0.56039   1.000
    C14     C    0.32483   0.09695   0.38803   1.000
    C15     C    0.82483   0.09695   0.38804   1.000
    C16     C    0.33190   0.43333   0.06044   1.000
    C17     C    0.83191   0.43333   0.06043   1.000
    C18     C    0.17825   0.72524   0.99541   1.000
    C19     C    0.67824   0.72523   0.99539   1.000
    C20     C    0.17506   0.59701   0.11202   1.000
    C21     C    0.67506   0.59702   0.11202   1.000
    C22     C    0.16799   0.93331   0.43976   1.000
    C23     C    0.66799   0.93331   0.43970   1.000
