# CIF file generated by openbabel 2.4.90, see http://openbabel.sf.net
data_I
_chemical_name_common ''
_cell_length_a 23.068
_cell_length_b 16.552
_cell_length_c 16.552
_cell_angle_alpha 90.011
_cell_angle_beta 89.999
_cell_angle_gamma 90.002
_space_group_name_H-M_alt 'P 1'
_space_group_name_Hall 'P 1'
loop_
    _symmetry_equiv_pos_as_xyz
    x,y,z
loop_
    _atom_site_label
    _atom_site_type_symbol
    _atom_site_fract_x
    _atom_site_fract_y
    _atom_site_fract_z
    _atom_site_occupancy
    C0      C    0.99996   0.75121   0.72014   1.000
    C1      C    0.10838   0.00140   0.18974   1.000
    C2      C    0.60838   0.00140   0.18974   1.000
    C3      C    0.10837   0.99858   0.81024   1.000
    C4      C    0.60837   0.99858   0.81024   1.000
    C5      C    0.10837   0.81017   0.00140   1.000
    C6      C    0.60837   0.81017   0.00140   1.000
    C7      C    0.10838   0.18985   0.99850   1.000
    C8      C    0.60838   0.18985   0.99850   1.000
    C9      C    0.14162   0.49861   0.68984   1.000
    C10     C    0.64162   0.49861   0.68984   1.000
    C11     C    0.14163   0.50141   0.31019   1.000
    C12     C    0.64163   0.50141   0.31019   1.000
    C13     C    0.14162   0.68981   0.50140   1.000
    C14     C    0.64162   0.68981   0.50140   1.000
    C15     C    0.14162   0.31022   0.49856   1.000
    C16     C    0.64163   0.31022   0.49856   1.000
    C17     C    0.39162   0.99861   0.81025   1.000
    C18     C    0.89162   0.99861   0.81025   1.000
    C19     C    0.39163   0.00142   0.18975   1.000
    C20     C    0.89163   0.00142   0.18975   1.000
    C21     C    0.39163   0.18984   0.99856   1.000
    C22     C    0.89163   0.18984   0.99856   1.000
    C23     C    0.39162   0.81016   0.00140   1.000
    C24     C    0.89162   0.81016   0.00140   1.000
    C25     C    0.35838   0.50140   0.31014   1.000
    C26     C    0.85838   0.50140   0.31014   1.000
    C27     C    0.35837   0.49860   0.68981   1.000
    C28     C    0.85837   0.49860   0.68981   1.000
    C29     C    0.35838   0.31023   0.49856   1.000
    C30     C    0.85838   0.31023   0.49856   1.000
    C31     C    0.35837   0.68978   0.50143   1.000
    C32     C    0.85838   0.68979   0.50143   1.000
    C33     C    0.00003   0.24880   0.27985   1.000
    C34     C    0.50003   0.24880   0.27985   1.000
    C35     C    0.49997   0.75121   0.72014   1.000
    C36     C    0.99998   0.72007   0.24879   1.000
    C37     C    0.49998   0.72007   0.24879   1.000
    C38     C    0.00002   0.27994   0.75120   1.000
    C39     C    0.50002   0.27994   0.75120   1.000
    C40     C    0.24999   0.25122   0.77988   1.000
    C41     C    0.74999   0.25122   0.77988   1.000
    C42     C    0.25001   0.74879   0.22010   1.000
    C43     C    0.75001   0.74879   0.22013   1.000
    C44     C    0.25000   0.77984   0.74883   1.000
    C45     C    0.75000   0.77984   0.74883   1.000
    C46     C    0.25001   0.22016   0.25116   1.000
    C47     C    0.75001   0.22016   0.25116   1.000
