# CIF file generated by openbabel 2.4.90, see http://openbabel.sf.net
data_I
_chemical_name_common ''
_cell_length_a 13.144
_cell_length_b 13.013
_cell_length_c 23.511
_cell_angle_alpha 90
_cell_angle_beta 90
_cell_angle_gamma 90
_space_group_name_H-M_alt 'P 1'
_space_group_name_Hall 'P 1'
loop_
    _symmetry_equiv_pos_as_xyz
    x,y,z
loop_
    _atom_site_label
    _atom_site_type_symbol
    _atom_site_fract_x
    _atom_site_fract_y
    _atom_site_fract_z
    _atom_site_occupancy
    Zn0     Zn   0.40331   0.00000   0.00000   1.000
    Zn1     Zn   0.00000   0.59842   0.49999   1.000
    Zn2     Zn   0.00000   0.40162   0.49999   1.000
    Si3     Si   0.50000   0.50001   0.74845   1.000
    Si4     Si   0.50000   0.50001   0.25153   1.000
    H5      H    0.66436   0.62649   0.80189   1.000
    H6      H    0.66328   0.76632   0.87364   1.000
    H7      H    0.33565   0.37353   0.80189   1.000
    H8      H    0.33672   0.23370   0.87364   1.000
    H9      H    0.37427   0.66602   0.30462   1.000
    H10     H    0.23369   0.66492   0.37506   1.000
    H11     H    0.62573   0.33400   0.30462   1.000
    H12     H    0.76632   0.33510   0.37506   1.000
    H13     H    0.33565   0.62649   0.19810   1.000
    H14     H    0.33672   0.76632   0.12634   1.000
    H15     H    0.66435   0.37353   0.19810   1.000
    H16     H    0.66328   0.23370   0.12634   1.000
    H17     H    0.62573   0.66602   0.69536   1.000
    H18     H    0.76632   0.66492   0.62492   1.000
    H19     H    0.37427   0.33401   0.69536   1.000
    H20     H    0.23369   0.33511   0.62492   1.000
    H21     H    0.33565   0.37353   0.19809   1.000
    H22     H    0.33672   0.23370   0.12634   1.000
    H23     H    0.66435   0.62649   0.19809   1.000
    H24     H    0.66328   0.76632   0.12634   1.000
    H25     H    0.62572   0.33401   0.69537   1.000
    H26     H    0.76629   0.33509   0.62492   1.000
    H27     H    0.37428   0.66602   0.69537   1.000
    H28     H    0.23372   0.66493   0.62492   1.000
    H29     H    0.66435   0.37353   0.80189   1.000
    H30     H    0.66328   0.23371   0.87364   1.000
    H31     H    0.33565   0.62649   0.80189   1.000
    Zn32    Zn   0.59669   0.00000   0.00000   1.000
    H33     H    0.33673   0.76632   0.87364   1.000
    H34     H    0.37428   0.33401   0.30460   1.000
    H35     H    0.23371   0.33509   0.37500   1.000
    H36     H    0.62572   0.66601   0.30461   1.000
    H37     H    0.76629   0.66493   0.37506   1.000
    C38     C    0.59181   0.65670   0.81706   1.000
    C39     C    0.59211   0.73515   0.85736   1.000
    C40     C    0.40819   0.34333   0.81706   1.000
    C41     C    0.40789   0.26487   0.85736   1.000
    C42     C    0.34391   0.59274   0.31952   1.000
    C43     C    0.26504   0.59304   0.35908   1.000
    C44     C    0.65609   0.40728   0.31952   1.000
    C45     C    0.73496   0.40698   0.35908   1.000
    C46     C    0.40819   0.65670   0.18292   1.000
    C47     C    0.40789   0.73515   0.14262   1.000
    C48     C    0.59181   0.34332   0.18292   1.000
    C49     C    0.59211   0.26487   0.14262   1.000
    C50     C    0.65609   0.59274   0.68040   1.000
    C51     C    0.73496   0.59304   0.64090   1.000
    C52     C    0.34392   0.40728   0.68040   1.000
    C53     C    0.26504   0.40699   0.64090   1.000
    C54     C    0.40819   0.34332   0.18292   1.000
    C55     C    0.40789   0.26487   0.14262   1.000
    C56     C    0.59181   0.65670   0.18292   1.000
    C57     C    0.59211   0.73515   0.14262   1.000
    C58     C    0.65608   0.40728   0.68047   1.000
    C59     C    0.73495   0.40698   0.64090   1.000
    C60     C    0.34393   0.59274   0.68047   1.000
    C61     C    0.26506   0.59305   0.64090   1.000
    C62     C    0.59181   0.34333   0.81700   1.000
    C63     C    0.59211   0.26487   0.85736   1.000
    C64     C    0.40819   0.65670   0.81700   1.000
    C65     C    0.40789   0.73515   0.85736   1.000
    C66     C    0.34392   0.40728   0.31950   1.000
    C67     C    0.26506   0.40698   0.35908   1.000
    C68     C    0.65608   0.59274   0.31950   1.000
    C69     C    0.73494   0.59305   0.35908   1.000
    C70     C    0.50000   0.61586   0.79609   1.000
    C71     C    0.50000   0.77467   0.87798   1.000
    C72     C    0.50000   0.85748   0.92197   1.000
    C73     C    0.50000   0.38417   0.79609   1.000
    C74     C    0.50000   0.22536   0.87798   1.000
    C75     C    0.50000   0.14255   0.92197   1.000
    C76     C    0.38496   0.50001   0.29891   1.000
    C77     C    0.22517   0.50001   0.37926   1.000
    C78     C    0.14179   0.49998   0.42240   1.000
    C79     C    0.61504   0.50001   0.29891   1.000
    C80     C    0.77483   0.50002   0.37926   1.000
    C81     C    0.85821   0.50005   0.42244   1.000
    C82     C    0.50000   0.61585   0.20389   1.000
    C83     C    0.50000   0.77467   0.12200   1.000
    C84     C    0.50000   0.85747   0.07801   1.000
    C85     C    0.50000   0.38416   0.20389   1.000
    C86     C    0.50000   0.22535   0.12200   1.000
    C87     C    0.50000   0.14255   0.07801   1.000
    C88     C    0.61504   0.50001   0.70108   1.000
    C89     C    0.77483   0.50001   0.62073   1.000
    C90     C    0.85821   0.49998   0.57755   1.000
    C91     C    0.38496   0.50001   0.70108   1.000
    C92     C    0.22518   0.50002   0.62073   1.000
    C93     C    0.14180   0.50005   0.57755   1.000
    O94     O    0.58658   0.88984   0.93927   1.000
    O95     O    0.41342   0.11019   0.93927   1.000
    O96     O    0.10912   0.58740   0.43940   1.000
    O97     O    0.89088   0.41263   0.43940   1.000
    O98     O    0.41342   0.88983   0.06071   1.000
    O99     O    0.58658   0.11018   0.06071   1.000
    O100    O    0.89088   0.58740   0.56058   1.000
    O101    O    0.10913   0.41263   0.56058   1.000
    O102    O    0.41342   0.11018   0.06071   1.000
    O103    O    0.58658   0.88984   0.06071   1.000
    O104    O    0.89057   0.41252   0.56040   1.000
    O105    O    0.10944   0.58751   0.56047   1.000
    O106    O    0.58658   0.11018   0.93927   1.000
    O107    O    0.41342   0.88984   0.93927   1.000
    O108    O    0.10943   0.41252   0.43951   1.000
    O109    O    0.89057   0.58751   0.43951   1.000
loop_
    _geom_bond_atom_site_label_1
    _geom_bond_atom_site_label_2
    _geom_bond_distance
    _geom_bond_site_symmetry_2
    _ccdc_geom_bond_type
    Zn0    O102      2.02750      .   S
    Zn0    O98       2.02735  1_545   S
    Zn0    O95       2.02790  1_554   S
    Zn0    O107      2.02763  1_544   S
    Zn32   O103      2.02732  1_545   S
    Zn32   O99       2.02753      .   S
    Zn32   O106      2.02786  1_554   S
    Zn32   O94       2.02765  1_544   S
    O103   C84       1.27980      .   S
    O102   C87       1.27980      .   S
    O99    C87       1.27976      .   S
    O98    C84       1.27976      .   S
    C87    C86       1.49358      .   S
    C84    C83       1.49358      .   S
    C83    C57       1.40186      .   S
    C83    C47       1.40185      .   S
    C86    C55       1.40186      .   S
    C86    C49       1.40185      .   S
    H24    C57       1.08903      .   S
    H14    C47       1.08903      .   S
    H22    C55       1.08903      .   S
    H16    C49       1.08903      .   S
    C55    C54       1.39287      .   S
    C57    C56       1.39287      .   S
    C49    C48       1.39287      .   S
    C47    C46       1.39287      .   S
    C46    H13       1.09136      .   S
    C46    C82       1.40776      .   S
    C48    H15       1.09136      .   S
    C48    C85       1.40776      .   S
    C54    H21       1.09129      .   S
    C54    C85       1.40774      .   S
    C56    H23       1.09129      .   S
    C56    C82       1.40774      .   S
    C82    Si4       1.87805      .   S
    C85    Si4       1.87805      .   S
    Si4    C79       1.87813      .   S
    Si4    C76       1.87813      .   S
    C79    C68       1.40765      .   S
    C79    C44       1.40780      .   S
    C76    C66       1.40765      .   S
    C76    C42       1.40780      .   S
    H34    C66       1.09136      .   S
    H36    C68       1.09129      .   S
    H9     C42       1.09138      .   S
    H11    C44       1.09137      .   S
    C66    C67       1.39305      .   S
    C68    C69       1.39304      .   S
    C42    C43       1.39280      .   S
    C44    C45       1.39281      .   S
    C67    H35       1.08852      .   S
    C67    C77       1.40193      .   S
    C69    H37       1.08900      .   S
    C69    C80       1.40193      .   S
    C43    H10       1.08902      .   S
    C43    C77       1.40189      .   S
    C45    H12       1.08902      .   S
    C45    C80       1.40188      .   S
    C77    C78       1.49326      .   S
    C80    C81       1.49390      .   S
    C78    O96       1.27994      .   S
    C78    O108      1.27982      .   S
    C81    O97       1.27964      .   S
    C81    O109      1.27953      .   S
    O96    Zn1       2.02657      .   S
    O97    Zn2       2.02658  1_655   S
    O109   Zn1       2.02760  1_655   S
    O108   Zn2       2.02756      .   S
    Zn2    O104      2.02641  1_455   S
    Zn2    O101      2.02660      .   S
    Zn1    O105      2.02758      .   S
    Zn1    O100      2.02659  1_455   S
    O104   C90       1.28013      .   S
    O105   C93       1.27960      .   S
    O101   C93       1.27971      .   S
    O100   C90       1.27972      .   S
    C93    C92       1.49390      .   S
    C90    C89       1.49391      .   S
    C89    C51       1.40180      .   S
    C89    C59       1.40185      .   S
    C92    C53       1.40180      .   S
    C92    C61       1.40185      .   S
    H18    C51       1.08902      .   S
    H20    C53       1.08902      .   S
    H26    C59       1.08901      .   S
    H28    C61       1.08900      .   S
    C51    C50       1.39185      .   S
    C53    C52       1.39186      .   S
    C59    C58       1.39289      .   S
    C61    C60       1.39289      .   S
    C52    H19       1.09183      .   S
    C52    C91       1.40836      .   S
    C50    H17       1.09183      .   S
    C50    C88       1.40837      .   S
    C58    H25       1.09137      .   S
    C58    C88       1.40781      .   S
    C60    H27       1.09137      .   S
    C60    C91       1.40781      .   S
    C91    Si3       1.87799      .   S
    C88    Si3       1.87798      .   S
    Si3    C70       1.87805      .   S
    Si3    C73       1.87805      .   S
    C70    C64       1.40725      .   S
    C70    C38       1.40776      .   S
    C73    C62       1.40726      .   S
    C73    C40       1.40776      .   S
    H7     C40       1.09129      .   S
    H5     C38       1.09129      .   S
    H29    C62       1.09083      .   S
    H31    C64       1.09083      .   S
    C64    C65       1.39383      .   S
    C62    C63       1.39384      .   S
    C38    C39       1.39287      .   S
    C40    C41       1.39287      .   S
    C65    H33       1.08903      .   S
    C65    C71       1.40186      .   S
    C63    H30       1.08903      .   S
    C63    C74       1.40185      .   S
    C39    H6        1.08903      .   S
    C39    C71       1.40185      .   S
    C41    H8        1.08903      .   S
    C41    C74       1.40185      .   S
    C74    C75       1.49358      .   S
    C71    C72       1.49359      .   S
    C72    O107      1.27978      .   S
    C72    O94       1.27977      .   S
    C75    O95       1.27976      .   S
    C75    O106      1.27978      .   S
    Zn32   Zn0       2.54176      .   S
    Zn1    Zn2       2.56095      .   S
