# CIF file generated by openbabel 2.4.90, see http://openbabel.sf.net
data_I
_chemical_name_common ''
_cell_length_a 13.144
_cell_length_b 13.013
_cell_length_c 23.511
_cell_angle_alpha 90
_cell_angle_beta 90
_cell_angle_gamma 90
_space_group_name_H-M_alt 'P 1'
_space_group_name_Hall 'P 1'
loop_
    _symmetry_equiv_pos_as_xyz
    x,y,z
loop_
    _atom_site_label
    _atom_site_type_symbol
    _atom_site_fract_x
    _atom_site_fract_y
    _atom_site_fract_z
    _atom_site_occupancy
    N0      N    0.50000   0.50001   0.74845   1.000
    N1      N    0.50000   0.50001   0.25153   1.000
    Zr2     Zr   0.50000   0.00001   0.99999   1.000
    O3      O    0.50000   0.87802   0.06564   1.000
    O4      O    0.50000   0.87802   0.93434   1.000
    O5      O    0.50000   0.12200   0.93434   1.000
    O6      O    0.50000   0.12200   0.06564   1.000
    Zr7     Zr   0.00000   0.50001   0.49998   1.000
    O8      O    0.87803   0.50002   0.43507   1.000
    O9      O    0.12197   0.50001   0.43507   1.000
    O10     O    0.12197   0.50002   0.56490   1.000
    O11     O    0.87803   0.50001   0.56490   1.000
loop_
    _geom_bond_atom_site_label_1
    _geom_bond_atom_site_label_2
    _geom_bond_distance
    _geom_bond_site_symmetry_2
    _ccdc_geom_bond_type
    Zr2    O3        2.21418  1_546   S
    N1     O3        6.58005      .   S
    Zr2    O4        2.21421  1_545   S
    N0     O4        6.58004      .   S
    Zr2    O5        2.21424      .   S
    N0     O5        6.58007      .   S
    Zr2    O6        2.21418  1_556   S
    N1     O6        6.58005      .   S
    Zr7    O8        2.21344  1_455   S
    N1     O8        6.58107      .   S
    Zr7    O9        2.21355      .   S
    N1     O9        6.58096      .   S
    Zr7    O10       2.21357      .   S
    N0     O10       6.58115      .   S
    Zr7    O11       2.21356  1_455   S
    N0     O11       6.58114      .   S
