# CIF file generated by openbabel 2.4.90, see http://openbabel.sf.net
data_I
_chemical_name_common ''
_cell_length_a 13.144
_cell_length_b 13.013
_cell_length_c 23.511
_cell_angle_alpha 90
_cell_angle_beta 90
_cell_angle_gamma 90
_space_group_name_H-M_alt 'P 1'
_space_group_name_Hall 'P 1'
loop_
    _symmetry_equiv_pos_as_xyz
    x,y,z
loop_
    _atom_site_label
    _atom_site_type_symbol
    _atom_site_fract_x
    _atom_site_fract_y
    _atom_site_fract_z
    _atom_site_occupancy
    Zr0     Zr   0.59669   0.00000   0.00000   1.000
    Zr1     Zr   0.40331   0.00000   0.00000   1.000
    Zr2     Zr   0.00000   0.59842   0.49999   1.000
    Zr3     Zr   0.00000   0.40162   0.49999   1.000
    Zr4     Zr   0.50000   0.85748   0.92197   1.000
    Zr5     Zr   0.50000   0.14255   0.92197   1.000
    Zr6     Zr   0.14179   0.49998   0.42240   1.000
    Zr7     Zr   0.85821   0.50005   0.42244   1.000
    Zr8     Zr   0.50000   0.85747   0.07801   1.000
    Zr9     Zr   0.50000   0.14255   0.07801   1.000
    Zr10    Zr   0.85821   0.49998   0.57755   1.000
    Zr11    Zr   0.14180   0.50005   0.57755   1.000
    Zr12    Zr   0.58658   0.88984   0.93927   1.000
    Zr13    Zr   0.41342   0.11019   0.93927   1.000
    Zr14    Zr   0.10912   0.58740   0.43940   1.000
    Zr15    Zr   0.89088   0.41263   0.43940   1.000
    Zr16    Zr   0.41342   0.88983   0.06071   1.000
    Zr17    Zr   0.58658   0.11018   0.06071   1.000
    Zr18    Zr   0.89088   0.58740   0.56058   1.000
    Zr19    Zr   0.10913   0.41263   0.56058   1.000
    Zr20    Zr   0.41342   0.11018   0.06071   1.000
    Zr21    Zr   0.58658   0.88984   0.06071   1.000
    Zr22    Zr   0.89057   0.41252   0.56040   1.000
    Zr23    Zr   0.10944   0.58751   0.56047   1.000
    Zr24    Zr   0.58658   0.11018   0.93927   1.000
    Zr25    Zr   0.41342   0.88984   0.93927   1.000
    Zr26    Zr   0.10943   0.41252   0.43951   1.000
    Zr27    Zr   0.89057   0.58751   0.43951   1.000
    O28     O    0.40837   0.05509   0.03035   1.000
    O29     O    0.40837   0.94492   0.03035   1.000
    O30     O    0.40837   0.05509   0.96963   1.000
    O31     O    0.40837   0.94492   0.96963   1.000
    O32     O    0.59163   0.94492   0.03035   1.000
    O33     O    0.59163   0.05509   0.03035   1.000
    O34     O    0.59163   0.05509   0.96963   1.000
    O35     O    0.59163   0.94492   0.96963   1.000
    O36     O    0.54329   0.87366   0.06936   1.000
    O37     O    0.45671   0.12636   0.06936   1.000
    O38     O    0.54329   0.12637   0.06936   1.000
    O39     O    0.45671   0.87365   0.06936   1.000
    O40     O    0.12546   0.54369   0.43090   1.000
    O41     O    0.12561   0.45625   0.43095   1.000
    O42     O    0.87454   0.45634   0.43092   1.000
    O43     O    0.87439   0.54378   0.43097   1.000
    O44     O    0.05456   0.59291   0.46969   1.000
    O45     O    0.94544   0.40712   0.46969   1.000
    O46     O    0.94528   0.59296   0.46975   1.000
    O47     O    0.05472   0.40707   0.46975   1.000
    O48     O    0.94528   0.40707   0.53019   1.000
    O49     O    0.05456   0.40713   0.53028   1.000
    O50     O    0.05472   0.59296   0.53023   1.000
    O51     O    0.94544   0.59291   0.53028   1.000
    O52     O    0.87439   0.45625   0.56897   1.000
    O53     O    0.12562   0.54378   0.56901   1.000
    O54     O    0.12546   0.45634   0.56906   1.000
    O55     O    0.87454   0.54369   0.56906   1.000
    O56     O    0.45671   0.87366   0.93062   1.000
    O57     O    0.54329   0.87366   0.93062   1.000
    O58     O    0.45671   0.12637   0.93062   1.000
    O59     O    0.54329   0.12637   0.93062   1.000
    O60     O    0.50000   0.00000   0.00000   1.000
    O61     O    0.00000   0.50002   0.49999   1.000
    N62     N    0.50000   0.50001   0.74845   1.000
    O63     O    0.75606   0.50000   0.62982   1.000
    O64     O    0.24394   0.50003   0.62982   1.000
    O65     O    0.50000   0.24400   0.86868   1.000
    O66     O    0.50000   0.75603   0.86868   1.000
    N67     N    0.50000   0.50001   0.25153   1.000
    O68     O    0.50000   0.24399   0.13129   1.000
    O69     O    0.50000   0.75603   0.13129   1.000
    O70     O    0.75606   0.50002   0.37016   1.000
    O71     O    0.24394   0.50000   0.37015   1.000
loop_
    _geom_bond_atom_site_label_1
    _geom_bond_atom_site_label_2
    _geom_bond_distance
    _geom_bond_site_symmetry_2
    _ccdc_geom_bond_type
    Zr1    O28       1.01375      .   S
    Zr20   O28       1.01375      .   S
    Zr1    O29       1.01367  1_545   S
    Zr16   O29       1.01367      .   S
    Zr1    O30       1.01395  1_554   S
    Zr13   O30       1.01395      .   S
    Zr1    O31       1.01381  1_544   S
    Zr25   O31       1.01381      .   S
    Zr0    O32       1.01366  1_545   S
    Zr21   O32       1.01366      .   S
    Zr0    O33       1.01377      .   S
    Zr17   O33       1.01377      .   S
    Zr0    O34       1.01393  1_554   S
    Zr24   O34       1.01393      .   S
    Zr0    O35       1.01382  1_544   S
    Zr12   O35       1.01382      .   S
    Zr21   O36       0.63990      .   S
    Zr8    O36       0.63990      .   S
    Zr20   O37       0.63990      .   S
    Zr9    O37       0.63990      .   S
    Zr17   O38       0.63988      .   S
    Zr9    O38       0.63988      .   S
    Zr16   O39       0.63988      .   S
    Zr8    O39       0.63988      .   S
    Zr6    O40       0.63997      .   S
    Zr14   O40       0.63997      .   S
    Zr6    O41       0.63991      .   S
    Zr26   O41       0.63991      .   S
    Zr7    O42       0.63982      .   S
    Zr15   O42       0.63982      .   S
    Zr7    O43       0.63977      .   S
    Zr27   O43       0.63977      .   S
    Zr14   O44       1.01329      .   S
    Zr2    O44       1.01329      .   S
    Zr15   O45       1.01329      .   S
    Zr3    O45       1.01329  1_455   S
    Zr27   O46       1.01380      .   S
    Zr2    O46       1.01380  1_455   S
    Zr26   O47       1.01378      .   S
    Zr3    O47       1.01378      .   S
    Zr3    O48       1.01321  1_455   S
    Zr22   O48       1.01321      .   S
    Zr3    O49       1.01330      .   S
    Zr19   O49       1.01330      .   S
    Zr2    O50       1.01379      .   S
    Zr23   O50       1.01379      .   S
    Zr2    O51       1.01330  1_455   S
    Zr18   O51       1.01330      .   S
    Zr22   O52       0.64006      .   S
    Zr10   O52       0.64006      .   S
    Zr23   O53       0.63980      .   S
    Zr11   O53       0.63980      .   S
    Zr19   O54       0.63986      .   S
    Zr11   O54       0.63986      .   S
    Zr18   O55       0.63986      .   S
    Zr10   O55       0.63986      .   S
    Zr4    O56       0.63989      .   S
    Zr25   O56       0.63989      .   S
    Zr4    O57       0.63988      .   S
    Zr12   O57       0.63988      .   S
    Zr5    O58       0.63988      .   S
    Zr13   O58       0.63988      .   S
    Zr5    O59       0.63989      .   S
    Zr24   O59       0.63989      .   S
    Zr0    O60       1.27088      .   S
    Zr1    O60       1.27088      .   S
    Zr2    O61       1.28047      .   S
    Zr3    O61       1.28047      .   S
    N62    O63       4.37106      .   S
    Zr10   O63       1.82019      .   S
    N62    O64       4.37106      .   S
    Zr11   O64       1.82018      .   S
    N62    O65       4.36921      .   S
    Zr5    O65       1.81997      .   S
    N62    O66       4.36921      .   S
    Zr4    O66       1.81998      .   S
    N67    O68       4.36924      .   S
    Zr9    O68       1.81994      .   S
    N67    O69       4.36924      .   S
    Zr8    O69       1.81993      .   S
    N67    O70       4.37110      .   S
    Zr7    O70       1.82030      .   S
    N67    O71       4.37090      .   S
    Zr6    O71       1.81988      .   S
