# CIF file generated by openbabel 2.4.90, see http://openbabel.sf.net
data_I
_chemical_name_common ''
_cell_length_a 16.201
_cell_length_b 21.517
_cell_length_c 18.871
_cell_angle_alpha 90
_cell_angle_beta 90.009
_cell_angle_gamma 90
_space_group_name_H-M_alt 'P 1'
_space_group_name_Hall 'P 1'
loop_
    _symmetry_equiv_pos_as_xyz
    x,y,z
loop_
    _atom_site_label
    _atom_site_type_symbol
    _atom_site_fract_x
    _atom_site_fract_y
    _atom_site_fract_z
    _atom_site_occupancy
    N0      N    0.35454   0.50084   0.33220   1.000
    N1      N    0.35444   0.00084   0.33121   1.000
    N2      N    0.85455   0.50084   0.33220   1.000
    N3      N    0.85446   0.00084   0.33121   1.000
    N4      N    0.39548   0.99918   0.83219   1.000
    N5      N    0.39540   0.49920   0.83217   1.000
    N6      N    0.89549   0.99918   0.83219   1.000
    N7      N    0.89541   0.49920   0.83216   1.000
    N8      N    0.14540   0.25083   0.66784   1.000
    N9      N    0.14547   0.75080   0.66783   1.000
    N10     N    0.64542   0.25083   0.66784   1.000
    N11     N    0.64548   0.75080   0.66783   1.000
    N12     N    0.10449   0.24923   0.16787   1.000
    N13     N    0.10458   0.74920   0.16787   1.000
    N14     N    0.60450   0.24923   0.16787   1.000
    N15     N    0.60459   0.74920   0.16786   1.000
    N16     N    0.14550   0.99918   0.66782   1.000
    N17     N    0.14542   0.49918   0.66784   1.000
    N18     N    0.64551   0.99918   0.66782   1.000
    N19     N    0.64543   0.49918   0.66784   1.000
    N20     N    0.10456   0.50082   0.16787   1.000
    N21     N    0.10447   0.00083   0.16780   1.000
    N22     N    0.60457   0.50082   0.16786   1.000
    N23     N    0.60448   0.00083   0.16781   1.000
    N24     N    0.35448   0.24922   0.33219   1.000
    N25     N    0.35455   0.74919   0.33217   1.000
    N26     N    0.85449   0.24922   0.33220   1.000
    N27     N    0.85456   0.74919   0.33217   1.000
    N28     N    0.39538   0.25082   0.83216   1.000
    N29     N    0.39545   0.75079   0.83217   1.000
    N30     N    0.89539   0.25082   0.83215   1.000
    N31     N    0.89546   0.75079   0.83217   1.000
    N32     N    0.36573   0.37503   0.58616   1.000
    N33     N    0.36580   0.87495   0.58615   1.000
    N34     N    0.86574   0.37503   0.58616   1.000
    N35     N    0.86581   0.87495   0.58615   1.000
    N36     N    0.38422   0.12507   0.08613   1.000
    N37     N    0.38431   0.62499   0.08606   1.000
    N38     N    0.88423   0.12507   0.08613   1.000
    N39     N    0.88432   0.62499   0.08606   1.000
    N40     N    0.13415   0.12507   0.41376   1.000
    N41     N    0.13423   0.62499   0.41387   1.000
    N42     N    0.63416   0.12507   0.41376   1.000
    N43     N    0.63424   0.62499   0.41387   1.000
    N44     N    0.11565   0.37503   0.91391   1.000
    N45     N    0.11573   0.87494   0.91389   1.000
    N46     N    0.61566   0.37503   0.91391   1.000
    N47     N    0.61574   0.87494   0.91389   1.000
    Zr48    Zr   0.52496   0.12503   0.92182   1.000
    O49     O    0.46641   0.08275   0.89145   1.000
    O50     O    0.46637   0.16729   0.89144   1.000
    O51     O    0.46268   0.12505   0.97681   1.000
    Zr52    Zr   0.52501   0.62499   0.92179   1.000
    O53     O    0.46643   0.66725   0.89142   1.000
    O54     O    0.46642   0.58273   0.89142   1.000
    O55     O    0.46274   0.62499   0.97678   1.000
    Zr56    Zr   0.02496   0.12503   0.92182   1.000
    O57     O    0.96641   0.08275   0.89145   1.000
    O58     O    0.96638   0.16729   0.89143   1.000
    O59     O    0.96269   0.12505   0.97681   1.000
    Zr60    Zr   0.02501   0.62499   0.92180   1.000
    O61     O    0.96644   0.66725   0.89143   1.000
    O62     O    0.96275   0.62499   0.97678   1.000
    O63     O    0.96642   0.58273   0.89142   1.000
    Zr64    Zr   0.27493   0.12503   0.57812   1.000
    O65     O    0.21636   0.16730   0.60853   1.000
    O66     O    0.21263   0.12504   0.52305   1.000
    O67     O    0.21640   0.08274   0.60853   1.000
    Zr68    Zr   0.27496   0.62499   0.57813   1.000
    O69     O    0.21641   0.66726   0.60854   1.000
    O70     O    0.21639   0.58272   0.60854   1.000
    O71     O    0.21268   0.62499   0.52317   1.000
    Zr72    Zr   0.77494   0.12503   0.57812   1.000
    O73     O    0.71637   0.16730   0.60853   1.000
    O74     O    0.71641   0.08274   0.60853   1.000
    O75     O    0.71265   0.12504   0.52305   1.000
    Zr76    Zr   0.77497   0.62499   0.57813   1.000
    O77     O    0.71642   0.66726   0.60854   1.000
    O78     O    0.71640   0.58272   0.60854   1.000
    O79     O    0.71270   0.62499   0.52317   1.000
    Zr80    Zr   0.97495   0.37503   0.07823   1.000
    O81     O    0.03355   0.41729   0.10861   1.000
    O82     O    0.03722   0.37503   0.02323   1.000
    O83     O    0.03352   0.33277   0.10861   1.000
    Zr84    Zr   0.97500   0.87498   0.07822   1.000
    O85     O    0.03354   0.91727   0.10858   1.000
    O86     O    0.03727   0.87497   0.02322   1.000
    O87     O    0.03358   0.83273   0.10860   1.000
    Zr88    Zr   0.47495   0.37503   0.07823   1.000
    O89     O    0.53722   0.37503   0.02324   1.000
    O90     O    0.53355   0.41729   0.10861   1.000
    O91     O    0.53353   0.33277   0.10861   1.000
    Zr92    Zr   0.47500   0.87498   0.07822   1.000
    O93     O    0.53359   0.83273   0.10860   1.000
    O94     O    0.53355   0.91727   0.10858   1.000
    O95     O    0.53728   0.87497   0.02322   1.000
    Zr96    Zr   0.49041   0.12503   0.26293   1.000
    O97     O    0.44562   0.16608   0.28597   1.000
    O98     O    0.52893   0.08405   0.23203   1.000
    O99     O    0.52894   0.16602   0.23204   1.000
    O100    O    0.53756   0.12505   0.31298   1.000
    O101    O    0.45431   0.12505   0.20479   1.000
    O102    O    0.44560   0.08399   0.28573   1.000
    Zr103   Zr   0.49051   0.62501   0.26293   1.000
    O104    O    0.52904   0.66600   0.23203   1.000
    O105    O    0.45441   0.62500   0.20472   1.000
    O106    O    0.44571   0.66605   0.28596   1.000
    O107    O    0.52903   0.58403   0.23204   1.000
    O108    O    0.53765   0.62500   0.31300   1.000
    O109    O    0.44570   0.58397   0.28597   1.000
    Zr110   Zr   0.99042   0.12503   0.26293   1.000
    O111    O    0.02895   0.16602   0.23204   1.000
    O112    O    0.02894   0.08405   0.23202   1.000
    O113    O    0.94563   0.16608   0.28597   1.000
    O114    O    0.03756   0.12505   0.31298   1.000
    O115    O    0.94561   0.08399   0.28573   1.000
    O116    O    0.95432   0.12505   0.20479   1.000
    Zr117   Zr   0.99052   0.62501   0.26293   1.000
    O118    O    0.94572   0.58397   0.28597   1.000
    O119    O    0.02904   0.58403   0.23204   1.000
    O120    O    0.95442   0.62500   0.20472   1.000
    O121    O    0.03766   0.62500   0.31300   1.000
    O122    O    0.94572   0.66605   0.28596   1.000
    O123    O    0.02904   0.66600   0.23205   1.000
    Zr124   Zr   0.25943   0.37501   0.76296   1.000
    O125    O    0.30423   0.33396   0.78598   1.000
    O126    O    0.29556   0.37502   0.70481   1.000
    O127    O    0.21227   0.37502   0.81304   1.000
    O128    O    0.22092   0.41598   0.73205   1.000
    O129    O    0.30423   0.41605   0.78598   1.000
    O130    O    0.22092   0.33403   0.73206   1.000
    Zr131   Zr   0.25952   0.87498   0.76295   1.000
    O132    O    0.29565   0.87497   0.70481   1.000
    O133    O    0.21235   0.87497   0.81302   1.000
    O134    O    0.22100   0.83400   0.73204   1.000
    O135    O    0.22102   0.91597   0.73204   1.000
    O136    O    0.30431   0.83394   0.78598   1.000
    O137    O    0.30432   0.91603   0.78598   1.000
    Zr138   Zr   0.75944   0.37501   0.76296   1.000
    O139    O    0.80424   0.41605   0.78598   1.000
    O140    O    0.72093   0.33403   0.73206   1.000
    O141    O    0.72094   0.41598   0.73205   1.000
    O142    O    0.79558   0.37502   0.70481   1.000
    O143    O    0.80424   0.33396   0.78598   1.000
    O144    O    0.71228   0.37502   0.81304   1.000
    Zr145   Zr   0.75953   0.87498   0.76295   1.000
    O146    O    0.80434   0.91603   0.78598   1.000
    O147    O    0.72102   0.83400   0.73204   1.000
    O148    O    0.72103   0.91597   0.73204   1.000
    O149    O    0.79566   0.87497   0.70481   1.000
    O150    O    0.80432   0.83394   0.78598   1.000
    O151    O    0.71237   0.87497   0.81302   1.000
    Zr152   Zr   0.00945   0.37500   0.73711   1.000
    O153    O    0.97093   0.41598   0.76800   1.000
    O154    O    0.97092   0.33402   0.76798   1.000
    O155    O    0.96231   0.37502   0.68703   1.000
    O156    O    0.05425   0.41605   0.71407   1.000
    O157    O    0.05425   0.33396   0.71407   1.000
    O158    O    0.04555   0.37501   0.79525   1.000
    Zr159   Zr   0.00954   0.87498   0.73711   1.000
    O160    O    0.05434   0.91603   0.71406   1.000
    O161    O    0.97101   0.83400   0.76800   1.000
    O162    O    0.04563   0.87497   0.79525   1.000
    O163    O    0.05433   0.83394   0.71406   1.000
    O164    O    0.97102   0.91597   0.76800   1.000
    O165    O    0.96240   0.87497   0.68703   1.000
    Zr166   Zr   0.72500   0.37503   0.42190   1.000
    O167    O    0.78358   0.41730   0.39150   1.000
    O168    O    0.78356   0.33276   0.39150   1.000
    O169    O    0.78728   0.37503   0.47687   1.000
    Zr170   Zr   0.72503   0.87498   0.42191   1.000
    O171    O    0.78360   0.83272   0.39149   1.000
    O172    O    0.78733   0.87497   0.47687   1.000
    O173    O    0.78356   0.91727   0.39125   1.000
    Zr174   Zr   0.22499   0.37503   0.42190   1.000
    O175    O    0.28355   0.33276   0.39149   1.000
    O176    O    0.28727   0.37503   0.47687   1.000
    O177    O    0.28357   0.41730   0.39150   1.000
    Zr178   Zr   0.22502   0.87498   0.42191   1.000
    O179    O    0.28359   0.83272   0.39149   1.000
    O180    O    0.28731   0.87497   0.47687   1.000
    O181    O    0.28355   0.91727   0.39125   1.000
    Zr182   Zr   0.50946   0.37500   0.73711   1.000
    O183    O    0.47094   0.41598   0.76800   1.000
    O184    O    0.47093   0.33402   0.76798   1.000
    O185    O    0.46231   0.37502   0.68703   1.000
    O186    O    0.54556   0.37501   0.79525   1.000
    O187    O    0.55426   0.41605   0.71407   1.000
    O188    O    0.55426   0.33396   0.71407   1.000
    Zr189   Zr   0.50955   0.87498   0.73711   1.000
    O190    O    0.47101   0.83400   0.76800   1.000
    O191    O    0.54565   0.87497   0.79525   1.000
    O192    O    0.55436   0.91603   0.71406   1.000
    O193    O    0.55434   0.83394   0.71406   1.000
    O194    O    0.46240   0.87497   0.68703   1.000
    O195    O    0.47102   0.91597   0.76800   1.000
    Zr196   Zr   0.24042   0.12504   0.23708   1.000
    O197    O    0.19563   0.16608   0.21406   1.000
    O198    O    0.19562   0.08399   0.21400   1.000
    O199    O    0.27894   0.16602   0.26799   1.000
    O200    O    0.28759   0.12505   0.18700   1.000
    O201    O    0.20430   0.12505   0.29519   1.000
    O202    O    0.27893   0.08405   0.26774   1.000
    Zr203   Zr   0.24052   0.62501   0.23708   1.000
    O204    O    0.27904   0.66599   0.26798   1.000
    O205    O    0.28769   0.62500   0.18698   1.000
    O206    O    0.20439   0.62500   0.29522   1.000
    O207    O    0.19572   0.58396   0.21406   1.000
    O208    O    0.19573   0.66605   0.21406   1.000
    O209    O    0.27903   0.58403   0.26799   1.000
    Zr210   Zr   0.74044   0.12504   0.23708   1.000
    O211    O    0.77894   0.08405   0.26774   1.000
    O212    O    0.69563   0.08399   0.21400   1.000
    O213    O    0.77896   0.16602   0.26799   1.000
    O214    O    0.70431   0.12505   0.29519   1.000
    O215    O    0.69565   0.16608   0.21406   1.000
    O216    O    0.78760   0.12505   0.18700   1.000
    Zr217   Zr   0.74054   0.62501   0.23708   1.000
    O218    O    0.69574   0.58396   0.21405   1.000
    O219    O    0.70441   0.62500   0.29522   1.000
    O220    O    0.77905   0.58403   0.26799   1.000
    O221    O    0.78770   0.62500   0.18698   1.000
    O222    O    0.69574   0.66605   0.21405   1.000
    O223    O    0.77905   0.66599   0.26798   1.000
loop_
    _geom_bond_atom_site_label_1
    _geom_bond_atom_site_label_2
    _geom_bond_distance
    _geom_bond_site_symmetry_2
    _ccdc_geom_bond_type
    Zr48   O49       1.43391      .   S
    N4     O49       2.40905  1_565   S
    Zr48   O50       1.43400      .   S
    N28    O50       2.40910      .   S
    Zr48   O51       1.44751      .   S
    N36    O51       2.42330  1_554   S
    Zr52   O53       1.43393      .   S
    N29    O53       2.40893      .   S
    Zr52   O54       1.43407      .   S
    N5     O54       2.40910      .   S
    Zr52   O55       1.44725      .   S
    N37    O55       2.42259  1_554   S
    Zr56   O57       1.43385  1_455   S
    N6     O57       2.40902  1_565   S
    Zr56   O58       1.43395  1_455   S
    N30    O58       2.40910      .   S
    Zr56   O59       1.44745  1_455   S
    N38    O59       2.42327  1_554   S
    Zr60   O61       1.43388  1_455   S
    N31    O61       2.40894      .   S
    Zr60   O62       1.44717  1_455   S
    N39    O62       2.42250  1_554   S
    Zr60   O63       1.43404  1_455   S
    N7     O63       2.40917      .   S
    Zr64   O65       1.43420      .   S
    N8     O65       2.40935      .   S
    Zr64   O66       1.44855      .   S
    N40    O66       2.42265      .   S
    Zr64   O67       1.43411      .   S
    N16    O67       2.40930  1_565   S
    Zr68   O69       1.43408      .   S
    N9     O69       2.40927      .   S
    Zr68   O70       1.43429      .   S
    N17    O70       2.40943      .   S
    Zr68   O71       1.44689      .   S
    N41    O71       2.42256      .   S
    Zr72   O73       1.43420      .   S
    N10    O73       2.40936      .   S
    Zr72   O74       1.43411      .   S
    N18    O74       2.40931  1_565   S
    Zr72   O75       1.44855      .   S
    N42    O75       2.42265      .   S
    Zr76   O77       1.43408      .   S
    N11    O77       2.40926      .   S
    Zr76   O78       1.43428      .   S
    N19    O78       2.40943      .   S
    Zr76   O79       1.44689      .   S
    N43    O79       2.42255      .   S
    Zr80   O81       1.43403  1_655   S
    N20    O81       2.40911      .   S
    Zr80   O82       1.44746  1_655   S
    N44    O82       2.42319  1_556   S
    Zr80   O83       1.43385  1_655   S
    N12    O83       2.40893      .   S
    Zr84   O85       1.43374  1_655   S
    N21    O85       2.40869  1_545   S
    Zr84   O86       1.44752  1_655   S
    N45    O86       2.42346  1_556   S
    Zr84   O87       1.43393  1_655   S
    N13    O87       2.40902      .   S
    Zr88   O89       1.44750      .   S
    N46    O89       2.42315  1_556   S
    Zr88   O90       1.43408      .   S
    N22    O90       2.40907      .   S
    Zr88   O91       1.43390      .   S
    N14    O91       2.40895      .   S
    Zr92   O93       1.43396      .   S
    N15    O93       2.40897      .   S
    Zr92   O94       1.43382      .   S
    N23    O94       2.40877  1_545   S
    Zr92   O95       1.44758      .   S
    N47    O95       2.42349  1_556   S
    Zr96   O97       1.22299      .   S
    N24    O97       2.47825      .   S
    Zr96   O98       1.22781      .   S
    N23    O98       2.48458      .   S
    Zr96   O99       1.22772      .   S
    N14    O99       2.48423      .   S
    Zr96   O100      1.21462      .   S
    N42    O100      2.46288      .   S
    Zr96   O101      1.24319      .   S
    N36    O101      2.51055      .   S
    Zr96   O102      1.22149      .   S
    N1     O102      2.47368      .   S
    Zr103  O104      1.22773      .   S
    N15    O104      2.48404      .   S
    Zr103  O105      1.24434      .   S
    N37    O105      2.51060      .   S
    Zr103  O106      1.22295      .   S
    N25    O106      2.47827      .   S
    Zr103  O107      1.22759      .   S
    N22    O107      2.48405      .   S
    Zr103  O108      1.21498      .   S
    N43    O108      2.46397      .   S
    Zr103  O109      1.22308      .   S
    N0     O109      2.47842      .   S
    Zr110  O111      1.22764  1_655   S
    N12    O111      2.48412      .   S
    Zr110  O112      1.22782  1_655   S
    N21    O112      2.48446      .   S
    Zr110  O113      1.22299      .   S
    N26    O113      2.47827      .   S
    Zr110  O114      1.21453  1_655   S
    N40    O114      2.46272      .   S
    Zr110  O115      1.22149      .   S
    N3     O115      2.47368      .   S
    Zr110  O116      1.24319      .   S
    N38    O116      2.51057      .   S
    Zr117  O118      1.22307      .   S
    N2     O118      2.47842      .   S
    Zr117  O119      1.22750  1_655   S
    N20    O119      2.48386      .   S
    Zr117  O120      1.24435      .   S
    N39    O120      2.51062      .   S
    Zr117  O121      1.21488  1_655   S
    N41    O121      2.46380      .   S
    Zr117  O122      1.22295      .   S
    N27    O122      2.47827      .   S
    Zr117  O123      1.22754  1_655   S
    N13    O123      2.48394      .   S
    Zr124  O125      1.22285      .   S
    N28    O125      2.47802      .   S
    Zr124  O126      1.24375      .   S
    N32    O126      2.51135      .   S
    Zr124  O127      1.21538      .   S
    N44    O127      2.46464      .   S
    Zr124  O128      1.22744      .   S
    N17    O128      2.48375      .   S
    Zr124  O129      1.22292      .   S
    N5     O129      2.47816      .   S
    Zr124  O130      1.22750      .   S
    N8     O130      2.48385      .   S
    Zr131  O132      1.24360      .   S
    N33    O132      2.51126      .   S
    Zr131  O133      1.21525      .   S
    N45    O133      2.46483      .   S
    Zr131  O134      1.22757      .   S
    N9     O134      2.48403      .   S
    Zr131  O135      1.22765      .   S
    N16    O135      2.48405      .   S
    Zr131  O136      1.22283      .   S
    N29    O136      2.47800      .   S
    Zr131  O137      1.22300      .   S
    N4     O137      2.47838      .   S
    Zr138  O139      1.22290      .   S
    N7     O139      2.47809      .   S
    Zr138  O140      1.22750      .   S
    N10    O140      2.48385      .   S
    Zr138  O141      1.22743      .   S
    N19    O141      2.48376      .   S
    Zr138  O142      1.24375      .   S
    N34    O142      2.51135      .   S
    Zr138  O143      1.22283      .   S
    N30    O143      2.47796      .   S
    Zr138  O144      1.21541      .   S
    N46    O144      2.46474      .   S
    Zr145  O146      1.22300      .   S
    N6     O146      2.47835      .   S
    Zr145  O147      1.22757      .   S
    N11    O147      2.48403      .   S
    Zr145  O148      1.22765      .   S
    N18    O148      2.48405      .   S
    Zr145  O149      1.24360      .   S
    N35    O149      2.51126      .   S
    Zr145  O150      1.22282      .   S
    N31    O150      2.47797      .   S
    Zr145  O151      1.21526      .   S
    N47    O151      2.46486      .   S
    Zr152  O153      1.22747  1_455   S
    N7     O153      2.48381      .   S
    Zr152  O154      1.22746  1_455   S
    N30    O154      2.48395      .   S
    Zr152  O155      1.21491  1_455   S
    N34    O155      2.46390      .   S
    Zr152  O156      1.22308      .   S
    N17    O156      2.47843      .   S
    Zr152  O157      1.22302      .   S
    N8     O157      2.47835      .   S
    Zr152  O158      1.24315      .   S
    N44    O158      2.51068      .   S
    Zr159  O160      1.22318      .   S
    N16    O160      2.47870      .   S
    Zr159  O161      1.22763  1_455   S
    N31    O161      2.48410      .   S
    Zr159  O162      1.24312      .   S
    N45    O162      2.51035      .   S
    Zr159  O163      1.22302      .   S
    N9     O163      2.47832      .   S
    Zr159  O164      1.22764  1_455   S
    N6     O164      2.48417      .   S
    Zr159  O165      1.21498  1_455   S
    N35    O165      2.46409      .   S
    Zr166  O167      1.43430      .   S
    N2     O167      2.40944      .   S
    Zr166  O168      1.43411      .   S
    N26    O168      2.40924      .   S
    Zr166  O169      1.44687      .   S
    N34    O169      2.42246      .   S
    Zr170  O171      1.43424      .   S
    N27    O171      2.40946      .   S
    Zr170  O172      1.44699      .   S
    N35    O172      2.42261      .   S
    Zr170  O173      1.43601      .   S
    N3     O173      2.41594  1_545   S
    Zr174  O175      1.43412      .   S
    N24    O175      2.40927      .   S
    Zr174  O176      1.44687      .   S
    N32    O176      2.42245      .   S
    Zr174  O177      1.43429      .   S
    N0     O177      2.40942      .   S
    Zr178  O179      1.43423      .   S
    N25    O179      2.40946      .   S
    Zr178  O180      1.44699      .   S
    N33    O180      2.42261      .   S
    Zr178  O181      1.43601      .   S
    N1     O181      2.41593  1_545   S
    Zr182  O183      1.22757      .   S
    N5     O183      2.48398      .   S
    Zr182  O184      1.22754      .   S
    N28    O184      2.48409      .   S
    Zr182  O185      1.21501      .   S
    N32    O185      2.46407      .   S
    Zr182  O186      1.24325      .   S
    N46    O186      2.51064      .   S
    Zr182  O187      1.22308      .   S
    N19    O187      2.47843      .   S
    Zr182  O188      1.22302      .   S
    N10    O188      2.47834      .   S
    Zr189  O190      1.22770      .   S
    N29    O190      2.48421      .   S
    Zr189  O191      1.24311      .   S
    N47    O191      2.51032      .   S
    Zr189  O192      1.22318      .   S
    N18    O192      2.47869      .   S
    Zr189  O193      1.22301      .   S
    N11    O193      2.47832      .   S
    Zr189  O194      1.21507      .   S
    N33    O194      2.46425      .   S
    Zr189  O195      1.22771      .   S
    N4     O195      2.48428      .   S
    Zr196  O197      1.22281      .   S
    N12    O197      2.47794      .   S
    Zr196  O198      1.22332      .   S
    N21    O198      2.47834      .   S
    Zr196  O199      1.22759      .   S
    N24    O199      2.48402      .   S
    Zr196  O200      1.21544      .   S
    N36    O200      2.46481      .   S
    Zr196  O201      1.24309      .   S
    N40    O201      2.50974      .   S
    Zr196  O202      1.22536      .   S
    N1     O202      2.47723      .   S
    Zr203  O204      1.22744      .   S
    N25    O204      2.48371      .   S
    Zr203  O205      1.21564      .   S
    N37    O205      2.46542      .   S
    Zr203  O206      1.24362      .   S
    N41    O206      2.51130      .   S
    Zr203  O207      1.22292      .   S
    N20    O207      2.47812      .   S
    Zr203  O208      1.22286      .   S
    N13    O208      2.47806      .   S
    Zr203  O209      1.22743      .   S
    N0     O209      2.48374      .   S
    Zr210  O211      1.22536      .   S
    N3     O211      2.47723      .   S
    Zr210  O212      1.22331      .   S
    N23    O212      2.47832      .   S
    Zr210  O213      1.22760      .   S
    N26    O213      2.48405      .   S
    Zr210  O214      1.24310      .   S
    N42    O214      2.50974      .   S
    Zr210  O215      1.22281      .   S
    N14    O215      2.47797      .   S
    Zr210  O216      1.21543      .   S
    N38    O216      2.46478      .   S
    Zr217  O218      1.22295      .   S
    N22    O218      2.47820      .   S
    Zr217  O219      1.24362      .   S
    N43    O219      2.51130      .   S
    Zr217  O220      1.22742      .   S
    N2     O220      2.48374      .   S
    Zr217  O221      1.21563      .   S
    N39    O221      2.46539      .   S
    Zr217  O222      1.22290      .   S
    N15    O222      2.47815      .   S
    Zr217  O223      1.22744      .   S
    N27    O223      2.48370      .   S
