# CIF file generated by openbabel 2.4.90, see http://openbabel.sf.net
data_I
_chemical_name_common ''
_cell_length_a 13.959
_cell_length_b 14.282
_cell_length_c 14.294
_cell_angle_alpha 97.176
_cell_angle_beta 106.298
_cell_angle_gamma 106.781
_space_group_name_H-M_alt 'P 1'
_space_group_name_Hall 'P 1'
loop_
    _symmetry_equiv_pos_as_xyz
    x,y,z
loop_
    _atom_site_label
    _atom_site_type_symbol
    _atom_site_fract_x
    _atom_site_fract_y
    _atom_site_fract_z
    _atom_site_occupancy
    H0      H    0.34912   0.49344   0.58987   1.000
    H1      H    0.51833   0.98286   0.58353   1.000
    H2      H    0.51885   0.47509   0.58200   1.000
    H3      H    0.52907   0.32081   0.27534   1.000
    H4      H    0.56551   0.33623   0.10566   1.000
    H5      H    0.27900   0.20935   0.67877   1.000
    H6      H    0.55073   0.81198   0.59351   1.000
    H7      H    0.45052   0.20109   0.66221   1.000
    H8      H    0.15260   0.40863   0.50590   1.000
    H9      H    0.98110   0.41549   0.01450   1.000
    H10     H    0.98285   0.41705   0.52395   1.000
    H11     H    0.97233   0.72728   0.67939   1.000
    H12     H    0.93491   0.89622   0.66252   1.000
    H13     H    0.22011   0.32236   0.79049   1.000
    H14     H    0.94927   0.40594   0.18583   1.000
    H15     H    0.04865   0.33926   0.79836   1.000
    H16     H    0.65089   0.50655   0.41011   1.000
    H17     H    0.48168   0.01714   0.41646   1.000
    H18     H    0.48115   0.52491   0.41797   1.000
    H19     H    0.47094   0.67918   0.72464   1.000
    H20     H    0.43450   0.66375   0.89432   1.000
    H21     H    0.72102   0.79066   0.32123   1.000
    H22     H    0.44927   0.18801   0.40647   1.000
    H23     H    0.54949   0.79892   0.33779   1.000
    H24     H    0.84740   0.59136   0.49408   1.000
    H25     H    0.01891   0.58451   0.98549   1.000
    H26     H    0.01715   0.58295   0.47603   1.000
    H27     H    0.02768   0.27272   0.32060   1.000
    H28     H    0.06510   0.10378   0.33747   1.000
    H29     H    0.77990   0.67764   0.20950   1.000
    H30     H    0.05074   0.59406   0.81416   1.000
    H31     H    0.95136   0.66075   0.20163   1.000
    C32     C    0.69461   0.33677   0.34262   1.000
    C33     C    0.70368   0.16252   0.62620   1.000
    C34     C    0.30009   0.35329   0.63702   1.000
    C35     C    0.70739   0.33977   0.44892   1.000
    C36     C    0.72147   0.89402   0.63542   1.000
    C37     C    0.68876   0.05561   0.62419   1.000
    C38     C    0.73022   0.35121   0.18219   1.000
    C39     C    0.36776   0.42727   0.60680   1.000
    C40     C    0.59628   0.97510   0.60325   1.000
    C41     C    0.46217   0.41747   0.60139   1.000
    C42     C    0.60534   0.33003   0.26512   1.000
    C43     C    0.62517   0.33827   0.17468   1.000
    C44     C    0.33004   0.27027   0.65749   1.000
    C45     C    0.61429   0.88350   0.60924   1.000
    C46     C    0.42483   0.26473   0.64825   1.000
    C47     C    0.80677   0.65835   0.66431   1.000
    C48     C    0.79595   0.37282   0.83693   1.000
    C49     C    0.20033   0.36281   0.64636   1.000
    C50     C    0.79428   0.55202   0.66216   1.000
    C51     C    0.77855   0.36379   0.10554   1.000
    C52     C    0.81076   0.37473   0.94360   1.000
    C53     C    0.77022   0.81800   0.64840   1.000
    C54     C    0.13340   0.39243   0.57212   1.000
    C55     C    0.90331   0.39575   0.02314   1.000
    C56     C    0.03895   0.39806   0.58171   1.000
    C57     C    0.89585   0.73667   0.67025   1.000
    C58     C    0.87547   0.82667   0.66117   1.000
    C59     C    0.16967   0.34318   0.72941   1.000
    C60     C    0.88561   0.39001   0.11495   1.000
    C61     C    0.07490   0.35259   0.73472   1.000
    C62     C    0.30539   0.66322   0.65736   1.000
    C63     C    0.29633   0.83748   0.37378   1.000
    C64     C    0.69994   0.64673   0.36300   1.000
    C65     C    0.29262   0.66024   0.55107   1.000
    C66     C    0.27854   0.10598   0.36457   1.000
    C67     C    0.31125   0.94439   0.37579   1.000
    C68     C    0.26979   0.64878   0.81779   1.000
    C69     C    0.63223   0.57271   0.39315   1.000
    C70     C    0.40373   0.02490   0.39674   1.000
    C71     C    0.53784   0.58253   0.39859   1.000
    C72     C    0.39467   0.66996   0.73487   1.000
    C73     C    0.37483   0.66172   0.82530   1.000
    C74     C    0.66996   0.72972   0.34248   1.000
    C75     C    0.38572   0.11650   0.39074   1.000
    C76     C    0.57519   0.73528   0.35176   1.000
    C77     C    0.19324   0.34165   0.33568   1.000
    C78     C    0.20406   0.62718   0.16305   1.000
    C79     C    0.79966   0.63716   0.35361   1.000
    C80     C    0.20573   0.44797   0.33781   1.000
    C81     C    0.22146   0.63620   0.89445   1.000
    C82     C    0.18925   0.62526   0.05638   1.000
    C83     C    0.22979   0.18200   0.35158   1.000
    C84     C    0.86662   0.60759   0.42787   1.000
    C85     C    0.09670   0.60424   0.97685   1.000
    C86     C    0.96105   0.60193   0.41827   1.000
    C87     C    0.10416   0.26332   0.32973   1.000
    C88     C    0.12454   0.17332   0.33882   1.000
    C89     C    0.83035   0.65685   0.27059   1.000
    C90     C    0.11440   0.60999   0.88504   1.000
    C91     C    0.92510   0.64740   0.26526   1.000
    S92     S    0.79919   0.01839   0.65225   1.000
    S93     S    0.80336   0.35139   0.30267   1.000
    S94     S    0.70058   0.34664   0.98195   1.000
    S95     S    0.69754   0.69699   0.64941   1.000
    S96     S    0.20082   0.98161   0.34773   1.000
    S97     S    0.19665   0.64861   0.69732   1.000
    S98     S    0.29943   0.65336   0.01803   1.000
    S99     S    0.30246   0.30301   0.35057   1.000
    N100    N    0.49082   0.33783   0.62178   1.000
    N101    N    0.00965   0.37853   0.66143   1.000
    N102    N    0.50919   0.66216   0.37820   1.000
    N103    N    0.99036   0.62148   0.33856   1.000
    O104    O    0.62081   0.18778   0.60504   1.000
    O105    O    0.62588   0.33235   0.47537   1.000
    O106    O    0.79938   0.22102   0.64936   1.000
    O107    O    0.80071   0.35255   0.50664   1.000
    O108    O    0.87902   0.39452   0.81141   1.000
    O109    O    0.87586   0.52615   0.66953   1.000
    O110    O    0.70041   0.34949   0.77902   1.000
    O111    O    0.70089   0.49369   0.64998   1.000
    O112    O    0.37920   0.81222   0.39494   1.000
    O113    O    0.37413   0.66764   0.52461   1.000
    O114    O    0.20063   0.77898   0.35063   1.000
    O115    O    0.19930   0.64745   0.49334   1.000
    O116    O    0.12098   0.60548   0.18857   1.000
    O117    O    0.12415   0.47385   0.33046   1.000
    O118    O    0.29960   0.65051   0.22096   1.000
    O119    O    0.29912   0.50631   0.35001   1.000
loop_
    _geom_bond_atom_site_label_1
    _geom_bond_atom_site_label_2
    _geom_bond_distance
    _geom_bond_site_symmetry_2
    _ccdc_geom_bond_type
    H9     C55       1.08674      .   S
    S98    C82       1.73168      .   S
    S98    C81       1.73899  1_554   S
    C55    C60       1.40967      .   S
    C55    C52       1.38489  1_554   S
    C82    C78       1.47572      .   S
    C82    C85       1.38490  1_554   S
    C51    C60       1.39394      .   S
    C51    C38       1.44303      .   S
    C51    S94       1.73898  1_554   S
    H4     C43       1.08882      .   S
    C60    H14       1.09007      .   S
    C78    O116      1.27748      .   S
    C78    O118      1.27664      .   S
    C43    C38       1.39494      .   S
    C43    C42       1.40771      .   S
    C38    S93       1.73740      .   S
    H31    C91       1.08998      .   S
    H29    C89       1.08954      .   S
    C42    H3        1.08789      .   S
    C42    C32       1.38518      .   S
    C91    C89       1.38940      .   S
    C91    N103      1.34929      .   S
    C89    C79       1.40366      .   S
    S93    C32       1.73411      .   S
    H27    C87       1.08794      .   S
    H21    C74       1.08956      .   S
    C87    C77       1.38508      .   S
    C87    C88       1.40787      .   S
    O117   C80       1.27671      .   S
    C77    C80       1.47309      .   S
    C77    S99       1.73418      .   S
    H28    C88       1.08886      .   S
    H23    C76       1.09000      .   S
    C80    O119      1.27793      .   S
    N103   C86       1.34851      .   S
    C88    C83       1.39494      .   S
    C74    C76       1.38939      .   S
    C74    C64       1.40371      .   S
    C32    C35       1.47288      .   S
    S96    C66       1.73896  1_565   S
    S96    C67       1.73170      .   S
    S99    C83       1.73733      .   S
    O114   C63       1.27689      .   S
    C83    C66       1.44305      .   S
    C76    N102      1.34927      .   S
    C79    C64       1.47799      .   S
    C79    C84       1.40063      .   S
    C64    C69       1.40080      .   S
    C66    C75       1.39393      .   S
    C63    C67       1.47573      .   S
    C63    O112      1.27730      .   S
    C67    C70       1.38495  1_565   S
    N102   C71       1.34854      .   S
    C75    C70       1.40990      .   S
    C75    H22       1.09011      .   S
    C69    C71       1.38684      .   S
    C69    H16       1.08780      .   S
    C70    H17       1.08674      .   S
    C71    H18       1.08817      .   S
    C86    C84       1.38682      .   S
    C86    H26       1.08818  1_655   S
    C84    H24       1.08761      .   S
    C35    O105      1.27711      .   S
    C35    O107      1.27778      .   S
    O115   C65       1.27778      .   S
    H8     C54       1.08760      .   S
    H10    C56       1.08818  1_655   S
    O113   C65       1.27711      .   S
    C65    C62       1.47288      .   S
    C54    C56       1.38683      .   S
    C54    C49       1.40063      .   S
    C56    N101      1.34850      .   S
    H2     C41       1.08816      .   S
    H1     C40       1.08674      .   S
    H0     C39       1.08780      .   S
    H6     C45       1.09012      .   S
    C41    C39       1.38684      .   S
    C41    N100      1.34852      .   S
    C40    C45       1.40989      .   S
    C40    C37       1.38494  1_565   S
    O104   C33       1.27730      .   S
    C39    C34       1.40079      .   S
    C45    C36       1.39392      .   S
    N100   C46       1.34927      .   S
    C37    C33       1.47574      .   S
    C37    S92       1.73170      .   S
    C33    O106      1.27689      .   S
    C36    C53       1.44305      .   S
    C36    S92       1.73897  1_565   S
    C34    C49       1.47798      .   S
    C34    C44       1.40373      .   S
    C49    C59       1.40366      .   S
    C46    C44       1.38941      .   S
    C46    H7        1.08999      .   S
    C53    S95       1.73734      .   S
    C53    C58       1.39494      .   S
    S95    C47       1.73417      .   S
    O111   C50       1.27793      .   S
    C62    S97       1.73410      .   S
    C62    C72       1.38519      .   S
    C44    H5        1.08955      .   S
    C58    H12       1.08886      .   S
    C58    C57       1.40787      .   S
    N101   C61       1.34930      .   S
    C50    C47       1.47308      .   S
    C50    O109      1.27672      .   S
    C47    C57       1.38508      .   S
    C57    H11       1.08793      .   S
    S97    C68       1.73740      .   S
    H19    C72       1.08789      .   S
    C59    C61       1.38940      .   S
    C59    H13       1.08953      .   S
    C61    H15       1.08999      .   S
    C72    C73       1.40771      .   S
    O110   C48       1.27665      .   S
    O108   C48       1.27748      .   S
    H30    C90       1.09008      .   S
    C68    C73       1.39494      .   S
    C68    C81       1.44302      .   S
    C73    H20       1.08882      .   S
    C48    C52       1.47572      .   S
    C90    C81       1.39394      .   S
    C90    C85       1.40967      .   S
    C52    S94       1.73169      .   S
    C85    H25       1.08674      .   S
