# CIF file generated by openbabel 2.4.90, see http://openbabel.sf.net
data_I
_chemical_name_common ''
_cell_length_a 13.959
_cell_length_b 14.282
_cell_length_c 14.294
_cell_angle_alpha 97.176
_cell_angle_beta 106.298
_cell_angle_gamma 106.781
_space_group_name_H-M_alt 'P 1'
_space_group_name_Hall 'P 1'
loop_
    _symmetry_equiv_pos_as_xyz
    x,y,z
loop_
    _atom_site_label
    _atom_site_type_symbol
    _atom_site_fract_x
    _atom_site_fract_y
    _atom_site_fract_z
    _atom_site_occupancy
    N0      N    0.75359   0.35993   0.14380   1.000
    N1      N    0.25022   0.35824   0.64150   1.000
    N2      N    0.74685   0.85624   0.63996   1.000
    N3      N    0.24642   0.64007   0.85618   1.000
    N4      N    0.25316   0.14376   0.36003   1.000
    N5      N    0.74979   0.64176   0.35848   1.000
    Zr6     Zr   0.75035   0.35624   0.64393   1.000
    O7      O    0.92158   0.36185   0.64779   1.000
    O8      O    0.57903   0.35211   0.63828   1.000
    Zr9     Zr   0.24966   0.64376   0.35605   1.000
    O10     O    0.07843   0.63815   0.35220   1.000
    O11     O    0.42099   0.64789   0.36171   1.000
    O12     O    0.74444   0.21226   0.64085   1.000
    O13     O    0.75423   0.50045   0.64491   1.000
    O14     O    0.75608   0.35913   0.78781   1.000
    O15     O    0.74653   0.35544   0.49978   1.000
    O16     O    0.24393   0.64086   0.21218   1.000
    O17     O    0.25348   0.64456   0.50020   1.000
    O18     O    0.24578   0.49955   0.35507   1.000
    O19     O    0.25557   0.78774   0.35914   1.000
loop_
    _geom_bond_atom_site_label_1
    _geom_bond_atom_site_label_2
    _geom_bond_distance
    _geom_bond_site_symmetry_2
    _ccdc_geom_bond_type
    Zr6    O7        2.35303      .   S
    N1     O7        4.62850  1_455   S
    Zr6    O8        2.35331      .   S
    N1     O8        4.62881      .   S
    Zr9    O10       2.35303      .   S
    N5     O10       4.62850  1_655   S
    Zr9    O11       2.35330      .   S
    N5     O11       4.62881      .   S
    Zr6    O12       2.02847      .   S
    N2     O12       5.09295  1_565   S
    Zr6    O13       2.04279      .   S
    N2     O13       5.12095      .   S
    Zr6    O14       2.03033      .   S
    N0     O14       5.09706  1_554   S
    Zr6    O15       2.04461      .   S
    N0     O15       5.12492      .   S
    Zr9    O16       2.03033      .   S
    N3     O16       5.09706  1_556   S
    Zr9    O17       2.04461      .   S
    N3     O17       5.12492      .   S
    Zr9    O18       2.04279      .   S
    N4     O18       5.12095      .   S
    Zr9    O19       2.02846      .   S
    N4     O19       5.09294  1_545   S
