# CIF file generated by openbabel 2.4.90, see http://openbabel.sf.net
data_I
_chemical_name_common ''
_cell_length_a 13.959
_cell_length_b 14.282
_cell_length_c 14.294
_cell_angle_alpha 97.176
_cell_angle_beta 106.298
_cell_angle_gamma 106.781
_space_group_name_H-M_alt 'P 1'
_space_group_name_Hall 'P 1'
loop_
    _symmetry_equiv_pos_as_xyz
    x,y,z
loop_
    _atom_site_label
    _atom_site_type_symbol
    _atom_site_fract_x
    _atom_site_fract_y
    _atom_site_fract_z
    _atom_site_occupancy
    N0      N    0.75359   0.35993   0.14380   1.000
    N1      N    0.25022   0.35824   0.64150   1.000
    N2      N    0.74685   0.85624   0.63996   1.000
    N3      N    0.24642   0.64007   0.85618   1.000
    N4      N    0.25316   0.14376   0.36003   1.000
    N5      N    0.74979   0.64176   0.35848   1.000
    Zr6     Zr   0.75035   0.35624   0.64393   1.000
    O7      O    0.78109   0.36428   0.79211   1.000
    O8      O    0.77130   0.35903   0.50402   1.000
    O9      O    0.77901   0.50481   0.64841   1.000
    O10     O    0.76945   0.21667   0.64589   1.000
    O11     O    0.92158   0.36185   0.64779   1.000
    O12     O    0.73107   0.35399   0.78351   1.000
    O13     O    0.72175   0.35185   0.49555   1.000
    O14     O    0.72944   0.49609   0.64141   1.000
    O15     O    0.57903   0.35211   0.63828   1.000
    O16     O    0.71943   0.20786   0.63580   1.000
    Zr17    Zr   0.24966   0.64376   0.35605   1.000
    O18     O    0.22871   0.64097   0.49597   1.000
    O19     O    0.21892   0.63572   0.20787   1.000
    O20     O    0.23056   0.78333   0.35409   1.000
    O21     O    0.22100   0.49519   0.35157   1.000
    O22     O    0.07843   0.63815   0.35220   1.000
    O23     O    0.27826   0.64815   0.50443   1.000
    O24     O    0.26894   0.64601   0.21648   1.000
    O25     O    0.28058   0.79214   0.36419   1.000
    O26     O    0.27057   0.50390   0.35857   1.000
    O27     O    0.42099   0.64789   0.36171   1.000
loop_
    _geom_bond_atom_site_label_1
    _geom_bond_atom_site_label_2
    _geom_bond_distance
    _geom_bond_site_symmetry_2
    _ccdc_geom_bond_type
    Zr6    O7        2.02098      .   S
    N0     O7        5.15463  1_554   S
    Zr6    O8        2.10437      .   S
    N0     O8        5.08685      .   S
    Zr6    O9        2.03168      .   S
    N2     O9        5.17980      .   S
    Zr6    O10       2.08861      .   S
    N2     O10       5.05399  1_565   S
    Zr6    O11       2.35303      .   S
    N1     O11       4.62850  1_455   S
    Zr6    O12       2.08957      .   S
    N0     O12       5.05926  1_554   S
    Zr6    O13       2.03439      .   S
    N0     O13       5.18266      .   S
    Zr6    O14       2.10346      .   S
    N2     O14       5.08174      .   S
    Zr6    O15       2.35331      .   S
    N1     O15       4.62881      .   S
    Zr6    O16       2.01822      .   S
    N2     O16       5.15167  1_565   S
    Zr17   O18       2.10438      .   S
    N3     O18       5.08685      .   S
    Zr17   O19       2.02098      .   S
    N3     O19       5.15463  1_556   S
    Zr17   O20       2.08861      .   S
    N4     O20       5.05398  1_545   S
    Zr17   O21       2.03169      .   S
    N4     O21       5.17981      .   S
    Zr17   O22       2.35303      .   S
    N5     O22       4.62850  1_655   S
    Zr17   O23       2.03439      .   S
    N3     O23       5.18266      .   S
    Zr17   O24       2.08957      .   S
    N3     O24       5.05926  1_556   S
    Zr17   O25       2.01822      .   S
    N4     O25       5.15166  1_545   S
    Zr17   O26       2.10346      .   S
    N4     O26       5.08175      .   S
    Zr17   O27       2.35330      .   S
    N5     O27       4.62881      .   S
