# CIF file generated by openbabel 2.4.90, see http://openbabel.sf.net
data_I
_chemical_name_common ''
_cell_length_a 13.396
_cell_length_b 15.744
_cell_length_c 23.744
_cell_angle_alpha 89.872
_cell_angle_beta 90.124
_cell_angle_gamma 101.064
_space_group_name_H-M_alt 'P 1'
_space_group_name_Hall 'P 1'
loop_
    _symmetry_equiv_pos_as_xyz
    x,y,z
loop_
    _atom_site_label
    _atom_site_type_symbol
    _atom_site_fract_x
    _atom_site_fract_y
    _atom_site_fract_z
    _atom_site_occupancy
    H0      H    0.07847   0.08800   0.33030   1.000
    H1      H    0.57889   0.08821   0.33058   1.000
    H2      H    0.03435   0.37748   0.26452   1.000
    H3      H    0.53439   0.37747   0.26456   1.000
    H4      H    0.30374   0.30859   0.41174   1.000
    H5      H    0.80398   0.30847   0.41186   1.000
    H6      H    0.32860   0.38779   0.26540   1.000
    H7      H    0.82821   0.38774   0.26560   1.000
    H8      H    0.33140   0.54756   0.25348   1.000
    H9      H    0.83097   0.54753   0.25363   1.000
    H10     H    0.50433   0.60057   0.40617   1.000
    H11     H    0.00000   0.60057   0.40606   1.000
    H12     H    0.50552   0.44156   0.41733   1.000
    H13     H    0.00000   0.44155   0.41721   1.000
    H14     H    0.42402   0.41131   0.82948   1.000
    H15     H    0.92411   0.41125   0.82948   1.000
    H16     H    0.46799   0.12184   0.76456   1.000
    H17     H    0.96813   0.12187   0.76444   1.000
    H18     H    0.19842   0.19065   0.91233   1.000
    H19     H    0.69822   0.19063   0.91243   1.000
    H20     H    0.17322   0.11243   0.76546   1.000
    H21     H    0.67434   0.11264   0.76598   1.000
    H22     H    0.16913   0.95257   0.75282   1.000
    H23     H    0.67046   0.95281   0.75332   1.000
    H24     H    0.99786   0.89821   0.90560   1.000
    H25     H    0.49629   0.89802   0.90518   1.000
    H26     H    0.99792   0.05731   0.91750   1.000
    H27     H    0.49629   0.05710   0.91705   1.000
    H28     H    0.42389   0.91163   0.66930   1.000
    H29     H    0.92098   0.90952   0.66779   1.000
    H30     H    0.46802   0.62194   0.73468   1.000
    H31     H    0.96888   0.62166   0.73488   1.000
    H32     H    0.19956   0.69164   0.58779   1.000
    H33     H    0.69805   0.69126   0.58720   1.000
    H34     H    0.17448   0.61179   0.73383   1.000
    H35     H    0.67347   0.61199   0.73369   1.000
    H36     H    0.17018   0.45171   0.74612   1.000
    H37     H    0.66960   0.45209   0.74607   1.000
    H38     H    0.99706   0.39920   0.59347   1.000
    H39     H    0.49667   0.39898   0.59341   1.000
    H40     H    0.99743   0.55850   0.58200   1.000
    H41     H    0.49654   0.55815   0.58183   1.000
    C42     C    0.58365   0.91926   0.82873   1.000
    C43     C    0.13418   0.06533   0.79576   1.000
    C44     C    0.63480   0.06546   0.79608   1.000
    C45     C    0.13276   0.97704   0.78862   1.000
    H46     H    0.08022   0.58727   0.17039   1.000
    H47     H    0.57660   0.58710   0.17065   1.000
    H48     H    0.03240   0.87552   0.23569   1.000
    H49     H    0.53016   0.87610   0.23533   1.000
    H50     H    0.30130   0.80650   0.08711   1.000
    H51     H    0.80421   0.80647   0.08728   1.000
    H52     H    0.32515   0.88455   0.23407   1.000
    H53     H    0.82603   0.88399   0.23387   1.000
    H54     H    0.32968   0.04455   0.24678   1.000
    H55     H    0.82928   0.04376   0.24643   1.000
    H56     H    0.50260   0.09893   0.09450   1.000
    H57     H    0.00000   0.09904   0.09511   1.000
    H58     H    0.50191   0.93963   0.08250   1.000
    H59     H    0.00000   0.93999   0.08331   1.000
    C60     C    0.35230   0.68667   0.09095   1.000
    C61     C    0.85535   0.68672   0.09094   1.000
    C62     C    0.42371   0.63983   0.11686   1.000
    C63     C    0.35398   0.18842   0.40846   1.000
    C64     C    0.85379   0.18814   0.40822   1.000
    C65     C    0.42563   0.14145   0.38320   1.000
    C66     C    0.92490   0.14097   0.38258   1.000
    C67     C    0.49293   0.18938   0.34032   1.000
    C68     C    0.99260   0.18921   0.34003   1.000
    C69     C    0.06847   0.15108   0.31498   1.000
    C70     C    0.56874   0.15122   0.31520   1.000
    C71     C    0.13008   0.19353   0.27367   1.000
    C72     C    0.63017   0.19357   0.27378   1.000
    C73     C    0.11839   0.27526   0.25132   1.000
    C74     C    0.61851   0.27531   0.25140   1.000
    C75     C    0.04623   0.31464   0.27861   1.000
    C76     C    0.54631   0.31465   0.27868   1.000
    C77     C    0.48608   0.27379   0.32290   1.000
    C78     C    0.98595   0.27373   0.32278   1.000
    C79     C    0.35523   0.27230   0.39157   1.000
    C80     C    0.85528   0.27217   0.39153   1.000
    C81     C    0.41699   0.40616   0.34219   1.000
    C82     C    0.91694   0.40612   0.34219   1.000
    C83     C    0.41743   0.58035   0.32937   1.000
    C84     C    0.91741   0.58034   0.32938   1.000
    C85     C    0.36778   0.43458   0.29588   1.000
    C86     C    0.86753   0.43455   0.29595   1.000
    C87     C    0.36845   0.52288   0.28911   1.000
    C88     C    0.86819   0.52285   0.28919   1.000
    C89     C    0.46694   0.55329   0.37571   1.000
    C90     C    0.96710   0.55327   0.37565   1.000
    C91     C    0.46695   0.46511   0.38177   1.000
    C92     C    0.96709   0.46509   0.38100   1.000
    C93     C    0.14800   0.31078   0.90850   1.000
    C94     C    0.64786   0.31079   0.90860   1.000
    C95     C    0.07643   0.35768   0.88286   1.000
    C96     C    0.57633   0.35773   0.88294   1.000
    C97     C    0.00962   0.30986   0.83982   1.000
    C98     C    0.50950   0.30990   0.83989   1.000
    C99     C    0.43407   0.34825   0.81430   1.000
    C100    C    0.93415   0.34822   0.81433   1.000
    C101    C    0.37284   0.30602   0.77280   1.000
    C102    C    0.87291   0.30601   0.77281   1.000
    C103    C    0.38415   0.22415   0.75080   1.000
    C104    C    0.88427   0.22417   0.75078   1.000
    C105    C    0.45620   0.18470   0.77846   1.000
    C106    C    0.95634   0.18471   0.77837   1.000
    C107    C    0.01656   0.22552   0.82263   1.000
    C108    C    0.51640   0.22553   0.82273   1.000
    C109    C    0.14699   0.22694   0.89187   1.000
    C110    C    0.64682   0.22693   0.89196   1.000
    C111    C    0.08567   0.09330   0.84229   1.000
    C112    C    0.58548   0.09330   0.84235   1.000
    C113    C    0.08372   0.91923   0.82871   1.000
    C114    C    0.63347   0.97719   0.78890   1.000
    C115    C    0.03517   0.94584   0.87536   1.000
    C116    C    0.53422   0.94573   0.87508   1.000
    C117    C    0.03590   0.03403   0.88178   1.000
    C118    C    0.53491   0.03391   0.88153   1.000
    C119    C    0.14826   0.81135   0.59108   1.000
    C120    C    0.64774   0.81138   0.59086   1.000
    C121    C    0.07604   0.85784   0.61610   1.000
    C122    C    0.57618   0.85824   0.61623   1.000
    C123    C    0.00874   0.80947   0.65880   1.000
    C124    C    0.50934   0.81025   0.65920   1.000
    C125    C    0.43395   0.84851   0.68455   1.000
    C126    C    0.93195   0.84688   0.68342   1.000
    C127    C    0.37280   0.80613   0.72600   1.000
    C128    C    0.87045   0.80404   0.72460   1.000
    C129    C    0.38419   0.72420   0.74817   1.000
    C130    C    0.88316   0.72288   0.74740   1.000
    C131    C    0.45616   0.68484   0.72070   1.000
    C132    C    0.95625   0.68415   0.72053   1.000
    C133    C    0.01640   0.72534   0.67630   1.000
    C134    C    0.51624   0.72581   0.67640   1.000
    C135    C    0.14768   0.72757   0.60794   1.000
    C136    C    0.64663   0.72744   0.60757   1.000
    C137    C    0.08609   0.59352   0.65710   1.000
    C138    C    0.58506   0.59352   0.65690   1.000
    C139    C    0.08385   0.41930   0.67031   1.000
    C140    C    0.58342   0.41934   0.67025   1.000
    C141    C    0.13503   0.56500   0.70351   1.000
    C142    C    0.63406   0.56516   0.70338   1.000
    C143    C    0.13347   0.47662   0.71045   1.000
    C144    C    0.63280   0.47683   0.71037   1.000
    C145    C    0.03483   0.44648   0.62383   1.000
    C146    C    0.53429   0.44634   0.62376   1.000
    C147    C    0.03572   0.53475   0.61760   1.000
    C148    C    0.53488   0.53457   0.61747   1.000
    C149    C    0.92679   0.63978   0.11679   1.000
    C150    C    0.49005   0.68781   0.16010   1.000
    C151    C    0.99325   0.68773   0.16004   1.000
    C152    C    0.06930   0.65005   0.18557   1.000
    C153    C    0.56588   0.65001   0.18569   1.000
    C154    C    0.13015   0.69272   0.22714   1.000
    C155    C    0.62680   0.69278   0.22715   1.000
    C156    C    0.11769   0.77419   0.24920   1.000
    C157    C    0.61489   0.77445   0.24914   1.000
    C158    C    0.04508   0.81296   0.22173   1.000
    C159    C    0.54243   0.81334   0.22152   1.000
    C160    C    0.48258   0.77205   0.17726   1.000
    C161    C    0.98549   0.77185   0.17735   1.000
    C162    C    0.35269   0.77035   0.10772   1.000
    C163    C    0.85564   0.77031   0.10785   1.000
    C164    C    0.41326   0.90383   0.15744   1.000
    C165    C    0.91571   0.90366   0.15778   1.000
    C166    C    0.41589   0.07769   0.17116   1.000
    C167    C    0.91677   0.07744   0.17130   1.000
    C168    C    0.36445   0.93168   0.20387   1.000
    C169    C    0.86577   0.93125   0.20388   1.000
    C170    C    0.36619   0.01996   0.21108   1.000
    C171    C    0.86673   0.01945   0.21098   1.000
    C172    C    0.46476   0.05121   0.12462   1.000
    C173    C    0.96679   0.05121   0.12510   1.000
    C174    C    0.46367   0.96301   0.11811   1.000
    C175    C    0.96647   0.96310   0.11869   1.000
    N176    N    0.41639   0.31510   0.35068   1.000
    N177    N    0.91636   0.31504   0.35065   1.000
    N178    N    0.08616   0.18424   0.85079   1.000
    N179    N    0.58598   0.18424   0.85089   1.000
    N180    N    0.08673   0.68456   0.64879   1.000
    N181    N    0.58572   0.68455   0.64849   1.000
    N182    N    0.41285   0.81298   0.14900   1.000
    N183    N    0.91566   0.81285   0.14923   1.000
    F184    F    0.20772   0.15574   0.25433   1.000
    F185    F    0.70770   0.15572   0.25435   1.000
    F186    F    0.41671   0.66624   0.32343   1.000
    F187    F    0.91672   0.66623   0.32342   1.000
    F188    F    0.29588   0.34435   0.75302   1.000
    F189    F    0.79591   0.34434   0.75302   1.000
    F190    F    0.08334   0.83337   0.82220   1.000
    F191    F    0.58335   0.83340   0.82221   1.000
    F192    F    0.29588   0.84437   0.74573   1.000
    F193    F    0.79166   0.84074   0.74330   1.000
    F194    F    0.08336   0.33334   0.67657   1.000
    F195    F    0.58334   0.33343   0.67656   1.000
    F196    F    0.20813   0.65558   0.24692   1.000
    F197    F    0.70443   0.65543   0.24699   1.000
    F198    F    0.41663   0.16349   0.17781   1.000
    F199    F    0.91666   0.16317   0.17700   1.000
loop_
    _geom_bond_atom_site_label_1
    _geom_bond_atom_site_label_2
    _geom_bond_distance
    _geom_bond_site_symmetry_2
    _ccdc_geom_bond_type
    H58    C174      1.09013      .   S
    H59    C175      1.05144  1_455   S
    H50    C162      1.08862      .   S
    H51    C163      1.08861      .   S
    C61    C163      1.37610      .   S
    C61    C149      1.45114      .   S
    C60    C162      1.37611      .   S
    C60    C62       1.45048      .   S
    H56    C172      1.08901      .   S
    H57    C173      1.06889  1_455   S
    C162   N182      1.36116      .   S
    C163   N183      1.36131      .   S
    C149   C151      1.46922      .   S
    C62    C150      1.46848      .   S
    C174   C172      1.39480  1_565   S
    C174   C164      1.39770      .   S
    C175   C173      1.39499  1_565   S
    C175   C165      1.39803      .   S
    C172   C166      1.39054      .   S
    C173   C167      1.39077      .   S
    N182   C164      1.44367      .   S
    N182   C160      1.40153      .   S
    N183   C165      1.44440      .   S
    N183   C161      1.40153      .   S
    C164   C168      1.39661      .   S
    C165   C169      1.39685      .   S
    C151   C161      1.41042      .   S
    C151   C152      1.40894  1_655   S
    C150   C160      1.41012      .   S
    C150   C153      1.40814      .   S
    H46    C152      1.08884      .   S
    H47    C153      1.08882      .   S
    C166   F198      1.35846      .   S
    C166   C170      1.39085      .   S
    C167   F199      1.35713      .   S
    C167   C171      1.39096      .   S
    C160   C159      1.40326      .   S
    C161   C158      1.40275  1_655   S
    C152   C154      1.37083      .   S
    C153   C155      1.37008      .   S
    C168   C170      1.39646  1_565   S
    C168   H52       1.09151      .   S
    C169   C171      1.39679  1_565   S
    C169   H53       1.09147      .   S
    C171   H55       1.08790      .   S
    C170   H54       1.08794      .   S
    C159   H49       1.08389      .   S
    C159   C157      1.40382      .   S
    C158   H48       1.08380      .   S
    C158   C156      1.40273      .   S
    C154   F196      1.37285      .   S
    C154   C156      1.42574      .   S
    C155   F197      1.37124      .   S
    C155   C157      1.42612      .   S
    C73    C71       1.42687      .   S
    C73    C75       1.40467      .   S
    C74    C72       1.42700      .   S
    C74    C76       1.40469      .   S
    H8     C87       1.08801      .   S
    H9     C88       1.08796      .   S
    F184   C71       1.37387      .   S
    F185   C72       1.37390      .   S
    H2     C75       1.08391      .   S
    H3     C76       1.08394      .   S
    H6     C85       1.09291      .   S
    H7     C86       1.09156      .   S
    C71    C69       1.37066      .   S
    C72    C70       1.37078      .   S
    C75    C78       1.40281  1_455   S
    C76    C77       1.40316      .   S
    C87    C85       1.39741      .   S
    C87    C83       1.39144      .   S
    C88    C86       1.39750      .   S
    C88    C84       1.39156      .   S
    C85    C81       1.39704      .   S
    C86    C82       1.39722      .   S
    C69    H0        1.08888      .   S
    C69    C68       1.40908  1_455   S
    C70    H1        1.08895      .   S
    C70    C67       1.40936      .   S
    C78    C68       1.41044      .   S
    C78    N177      1.40257      .   S
    C77    C67       1.41062      .   S
    C77    N176      1.40255      .   S
    F187   C84       1.36117      .   S
    F186   C83       1.36115      .   S
    C83    C89       1.39107      .   S
    C84    C90       1.39117      .   S
    C68    C66       1.46843      .   S
    C67    C65       1.46912      .   S
    C81    N176      1.44592      .   S
    C81    C91       1.39828      .   S
    C82    N177      1.44611      .   S
    C82    C92       1.38717      .   S
    N177   C80       1.36227      .   S
    N176   C79       1.36254      .   S
    C90    C92       1.39388      .   S
    C90    H11       1.07007  1_655   S
    C89    C91       1.39543      .   S
    C89    H10       1.08898      .   S
    C92    H13       1.06323  1_655   S
    C91    H12       1.08976      .   S
    C66    C64       1.45103      .   S
    C65    C63       1.45072      .   S
    C80    C64       1.37666      .   S
    C80    H5        1.08873      .   S
    C79    C63       1.37646      .   S
    C79    H4        1.08872      .   S
    H41    C148      1.08983      .   S
    H40    C147      1.08982  1_655   S
    H33    C136      1.08904      .   S
    H32    C135      1.08874      .   S
    C120   C136      1.37641      .   S
    C120   C122      1.44982      .   S
    C119   C135      1.37626      .   S
    C119   C121      1.44935      .   S
    H39    C146      1.08900      .   S
    H38    C145      1.08899  1_655   S
    C136   N181      1.36188      .   S
    C135   N180      1.36169      .   S
    C121   C123      1.46888      .   S
    C122   C124      1.46770      .   S
    C148   C146      1.39527      .   S
    C148   C138      1.39695      .   S
    C147   C145      1.39503      .   S
    C147   C137      1.39740      .   S
    C146   C140      1.39088      .   S
    C145   C139      1.39099      .   S
    N181   C138      1.44503      .   S
    N181   C134      1.40146      .   S
    N180   C137      1.44480      .   S
    N180   C133      1.40114      .   S
    C138   C142      1.39834      .   S
    C137   C141      1.39762      .   S
    C123   C133      1.40967      .   S
    C123   C126      1.40835  1_455   S
    C124   C134      1.40970      .   S
    C124   C125      1.40820      .   S
    H29    C126      1.08888      .   S
    H28    C125      1.08913      .   S
    C140   F195      1.36036      .   S
    C140   C144      1.39123      .   S
    C139   F194      1.36000      .   S
    C139   C143      1.39121      .   S
    C133   C132      1.40463  1_455   S
    C134   C131      1.40411      .   S
    C126   C128      1.37009      .   S
    C125   C127      1.36948      .   S
    C142   C144      1.39706      .   S
    C142   H35       1.09165      .   S
    C141   C143      1.39702      .   S
    C141   H34       1.09153      .   S
    C144   H37       1.08797      .   S
    C143   H36       1.08796      .   S
    C132   H31       1.08390      .   S
    C132   C130      1.40393      .   S
    C131   H30       1.08387      .   S
    C131   C129      1.40457      .   S
    C128   F193      1.37202      .   S
    C128   C130      1.42646      .   S
    C127   F192      1.37303      .   S
    C127   C129      1.42702      .   S
    C104   C102      1.42676      .   S
    C104   C106      1.40464      .   S
    C103   C101      1.42668      .   S
    C103   C105      1.40508      .   S
    H22    C45       1.08797      .   S
    F189   C102      1.37267      .   S
    F188   C101      1.37225      .   S
    H23    C114      1.08755      .   S
    H17    C106      1.08391      .   S
    H16    C105      1.08397      .   S
    H20    C43       1.09152      .   S
    H21    C44       1.09148      .   S
    C101   C99       1.36962      .   S
    C102   C100      1.36995      .   S
    C106   C107      1.40302  1_655   S
    C105   C108      1.40318      .   S
    C45    C43       1.39710  1_565   S
    C45    C113      1.39118      .   S
    C114   C44       1.39722  1_565   S
    C114   C42       1.39170      .   S
    C43    C111      1.39715      .   S
    C44    C112      1.39721      .   S
    C99    H14       1.08934      .   S
    C99    C98       1.40883      .   S
    C100   H15       1.08879      .   S
    C100   C97       1.40821  1_655   S
    F190   C113      1.36006      .   S
    F191   C42       1.36017      .   S
    C107   C97       1.41009      .   S
    C107   N178      1.40246      .   S
    C108   C98       1.41012      .   S
    C108   N179      1.40234      .   S
    C113   C115      1.39106      .   S
    C42    C116      1.39088      .   S
    C97    C95       1.46734      .   S
    C98    C96       1.46775      .   S
    C111   N178      1.44507      .   S
    C111   C117      1.39803      .   S
    C112   N179      1.44516      .   S
    C112   C118      1.39797      .   S
    N178   C109      1.36255      .   S
    N179   C110      1.36250      .   S
    C116   C118      1.39533  1_565   S
    C116   H25       1.08899      .   S
    C115   C117      1.39533  1_565   S
    C115   H24       1.08764  1_455   S
    C118   H27       1.08989      .   S
    C117   H26       1.08966  1_455   S
    C95    C93       1.44984      .   S
    C96    C94       1.45015      .   S
    C109   C93       1.37624      .   S
    C109   H18       1.08876      .   S
    C110   C94       1.37638      .   S
    C110   H19       1.08875      .   S
