# CIF file generated by openbabel 2.4.90, see http://openbabel.sf.net
data_I
_chemical_name_common ''
_cell_length_a 13.396
_cell_length_b 15.744
_cell_length_c 23.744
_cell_angle_alpha 89.872
_cell_angle_beta 90.124
_cell_angle_gamma 101.064
_space_group_name_H-M_alt 'P 1'
_space_group_name_Hall 'P 1'
loop_
    _symmetry_equiv_pos_as_xyz
    x,y,z
loop_
    _atom_site_label
    _atom_site_type_symbol
    _atom_site_fract_x
    _atom_site_fract_y
    _atom_site_fract_z
    _atom_site_occupancy
    Lv0     Lv   0.46439   0.35405   0.33029   1.000
    Lv1     Lv   0.46163   0.85216   0.16990   1.000
    Lv2     Lv   0.53774   0.14541   0.82997   1.000
    Lv3     Lv   0.96358   0.85200   0.16998   1.000
    Lv4     Lv   0.03788   0.14540   0.82993   1.000
    Lv5     Lv   0.03753   0.64511   0.66894   1.000
    Lv6     Lv   0.96387   0.35397   0.33019   1.000
    Lv7     Lv   0.53756   0.64564   0.66915   1.000
