# CIF file generated by openbabel 2.4.90, see http://openbabel.sf.net
data_I
_chemical_name_common ''
_cell_length_a 13.396
_cell_length_b 15.744
_cell_length_c 23.744
_cell_angle_alpha 89.872
_cell_angle_beta 90.124
_cell_angle_gamma 101.064
_space_group_name_H-M_alt 'P 1'
_space_group_name_Hall 'P 1'
loop_
    _symmetry_equiv_pos_as_xyz
    x,y,z
loop_
    _atom_site_label
    _atom_site_type_symbol
    _atom_site_fract_x
    _atom_site_fract_y
    _atom_site_fract_z
    _atom_site_occupancy
    Mc0     Mc   0.43471   0.06496   0.39440   1.000
    Mc1     Mc   0.71470   0.35629   0.14812   1.000
    Mc2     Mc   0.43346   0.56347   0.10596   1.000
    Mc3     Mc   0.71220   0.85586   0.35187   1.000
    Mc4     Mc   0.56689   0.43413   0.89391   1.000
    Mc5     Mc   0.28751   0.14288   0.64776   1.000
    Mc6     Mc   0.93642   0.56341   0.10582   1.000
    Mc7     Mc   0.21390   0.85569   0.35222   1.000
    Mc8     Mc   0.06693   0.43407   0.89380   1.000
    Mc9     Mc   0.78767   0.14297   0.64770   1.000
    Mc10    Mc   0.06645   0.93422   0.60500   1.000
    Mc11    Mc   0.78732   0.64215   0.85077   1.000
    Mc12    Mc   0.93325   0.06409   0.39314   1.000
    Mc13    Mc   0.21428   0.35616   0.14800   1.000
    Mc14    Mc   0.56675   0.93466   0.60507   1.000
    Mc15    Mc   0.28779   0.64255   0.85117   1.000
