# CIF file generated by openbabel 2.4.90, see http://openbabel.sf.net
data_I
_chemical_name_common ''
_cell_length_a 13.396
_cell_length_b 15.744
_cell_length_c 23.744
_cell_angle_alpha 89.872
_cell_angle_beta 90.124
_cell_angle_gamma 101.064
_space_group_name_H-M_alt 'P 1'
_space_group_name_Hall 'P 1'
loop_
    _symmetry_equiv_pos_as_xyz
    x,y,z
loop_
    _atom_site_label
    _atom_site_type_symbol
    _atom_site_fract_x
    _atom_site_fract_y
    _atom_site_fract_z
    _atom_site_occupancy
    H0      H    0.16248   0.44187   0.22735   1.000
    H1      H    0.66281   0.44198   0.22746   1.000
    H2      H    0.08487   0.39607   0.16964   1.000
    H3      H    0.58531   0.39628   0.16969   1.000
    H4      H    0.22411   0.50661   0.13455   1.000
    H5      H    0.72462   0.50677   0.13467   1.000
    H6      H    0.31690   0.46022   0.17043   1.000
    H7      H    0.81738   0.46035   0.17057   1.000
    H8      H    0.34635   0.31588   0.13851   1.000
    H9      H    0.84674   0.31597   0.13870   1.000
    H10     H    0.27531   0.26775   0.07950   1.000
    H11     H    0.77580   0.26786   0.07966   1.000
    H12     H    0.11520   0.24814   0.13374   1.000
    H13     H    0.61558   0.24825   0.13379   1.000
    H14     H    0.20640   0.19953   0.17028   1.000
    H15     H    0.70672   0.19963   0.17038   1.000
    H16     H    0.18696   0.38417   0.07685   1.000
    H17     H    0.68749   0.38431   0.07697   1.000
    H18     H    0.33860   0.05738   0.72784   1.000
    H19     H    0.83888   0.05745   0.72774   1.000
    H20     H    0.41633   0.10217   0.66998   1.000
    H21     H    0.91653   0.10229   0.66987   1.000
    H22     H    0.27617   0.99211   0.63531   1.000
    H23     H    0.77633   0.99218   0.63520   1.000
    H24     H    0.18401   0.03961   0.67057   1.000
    H25     H    0.68422   0.03970   0.67051   1.000
    H26     H    0.15600   0.18400   0.63756   1.000
    H27     H    0.65612   0.18402   0.63750   1.000
    H28     H    0.22741   0.23125   0.57849   1.000
    H29     H    0.72752   0.23134   0.57840   1.000
    H30     H    0.38739   0.25039   0.63309   1.000
    H31     H    0.88749   0.25054   0.63306   1.000
    H32     H    0.29674   0.29986   0.66908   1.000
    H33     H    0.79678   0.29991   0.66908   1.000
    H34     H    0.31463   0.11406   0.57694   1.000
    H35     H    0.81482   0.11418   0.57686   1.000
    H36     H    0.33949   0.55741   0.77148   1.000
    H37     H    0.83973   0.55633   0.77159   1.000
    H38     H    0.41697   0.60239   0.82944   1.000
    H39     H    0.91689   0.60253   0.82937   1.000
    H40     H    0.27720   0.49186   0.86400   1.000
    H41     H    0.77780   0.49171   0.86443   1.000
    H42     H    0.18481   0.53898   0.82830   1.000
    H43     H    0.68493   0.53791   0.82845   1.000
    H44     H    0.15597   0.68315   0.86077   1.000
    H45     H    0.65503   0.68219   0.86030   1.000
    H46     H    0.22688   0.73053   0.92001   1.000
    H47     H    0.72623   0.73063   0.91918   1.000
    H48     H    0.38721   0.75020   0.86592   1.000
    H49     H    0.88606   0.75061   0.86477   1.000
    H50     H    0.29644   0.79950   0.82953   1.000
    H51     H    0.79443   0.79857   0.82811   1.000
    H52     H    0.31482   0.61376   0.92218   1.000
    H53     H    0.81480   0.61437   0.92195   1.000
    H54     H    0.16133   0.94094   0.27222   1.000
    H55     H    0.66002   0.94131   0.27180   1.000
    H56     H    0.08430   0.89576   0.33024   1.000
    H57     H    0.58298   0.89677   0.33000   1.000
    H58     H    0.22374   0.00000   0.36466   1.000
    H59     H    0.72339   0.00000   0.36414   1.000
    H60     H    0.31634   0.96000   0.32923   1.000
    H61     H    0.81525   0.95964   0.32861   1.000
    H62     H    0.34610   0.81617   0.36212   1.000
    H63     H    0.84395   0.81548   0.36156   1.000
    H64     H    0.27563   0.76851   0.42130   1.000
    H65     H    0.77353   0.76841   0.42100   1.000
    H66     H    0.11506   0.74816   0.36714   1.000
    H67     H    0.61266   0.74907   0.36712   1.000
    H68     H    0.20608   0.69929   0.33100   1.000
    H69     H    0.70271   0.69922   0.33089   1.000
    H70     H    0.18683   0.88477   0.42307   1.000
    H71     H    0.68586   0.88534   0.42272   1.000
    C72     C    0.16057   0.40114   0.18967   1.000
    C73     C    0.66095   0.40127   0.18978   1.000
    C74     C    0.24262   0.44534   0.14921   1.000
    C75     C    0.74310   0.44548   0.14933   1.000
    C76     C    0.27184   0.30681   0.11741   1.000
    C77     C    0.77227   0.30693   0.11756   1.000
    C78     C    0.18858   0.26127   0.15667   1.000
    C79     C    0.68892   0.26137   0.15676   1.000
    C80     C    0.34076   0.09781   0.68989   1.000
    C81     C    0.84097   0.09789   0.68979   1.000
    C82     C    0.25834   0.05376   0.64949   1.000
    C83     C    0.75854   0.05384   0.64941   1.000
    C84     C    0.23051   0.19242   0.61667   1.000
    C85     C    0.73064   0.19250   0.61662   1.000
    C86     C    0.31403   0.23784   0.65589   1.000
    C87     C    0.81413   0.23792   0.65586   1.000
    C88     C    0.34139   0.59777   0.80933   1.000
    C89     C    0.84126   0.59714   0.80920   1.000
    C90     C    0.25906   0.55339   0.84959   1.000
    C91     C    0.75922   0.55290   0.84967   1.000
    C92     C    0.23040   0.69181   0.88194   1.000
    C93     C    0.72964   0.69145   0.88131   1.000
    C94     C    0.31392   0.73753   0.84291   1.000
    C95     C    0.81264   0.73704   0.84190   1.000
    C96     C    0.15982   0.90066   0.31020   1.000
    C97     C    0.65834   0.90111   0.30986   1.000
    C98     C    0.24215   0.94534   0.35044   1.000
    C99     C    0.74117   0.94545   0.34995   1.000
    C100    C    0.27174   0.80717   0.38321   1.000
    C101    C    0.76976   0.80703   0.38280   1.000
    C102    C    0.18827   0.76113   0.34419   1.000
    C103    C    0.68570   0.76137   0.34400   1.000
    N104    N    0.25430   0.39249   0.09941   1.000
    N105    N    0.75480   0.39262   0.09954   1.000
    N106    N    0.17776   0.31512   0.20676   1.000
    N107    N    0.67798   0.31519   0.20687   1.000
    N108    N    0.24727   0.10635   0.59930   1.000
    N109    N    0.74747   0.10646   0.59923   1.000
    N110    N    0.32449   0.18424   0.70636   1.000
    N111    N    0.82463   0.18428   0.70630   1.000
    N112    N    0.24754   0.60586   0.89959   1.000
    N113    N    0.74746   0.60590   0.89939   1.000
    N114    N    0.32470   0.68410   0.79261   1.000
    N115    N    0.82370   0.68297   0.79193   1.000
    N116    N    0.25409   0.89296   0.40060   1.000
    N117    N    0.75299   0.89310   0.40015   1.000
    N118    N    0.17702   0.81449   0.29375   1.000
    N119    N    0.67464   0.81466   0.29348   1.000
    O120    O    0.43471   0.06496   0.39440   1.000
    O121    O    0.93325   0.06409   0.39314   1.000
    O122    O    0.06693   0.43407   0.89380   1.000
    O123    O    0.56689   0.43413   0.89391   1.000
    O124    O    0.06645   0.93422   0.60500   1.000
    O125    O    0.56675   0.93466   0.60507   1.000
    O126    O    0.43346   0.56347   0.10596   1.000
    O127    O    0.93642   0.56341   0.10582   1.000
loop_
    _geom_bond_atom_site_label_1
    _geom_bond_atom_site_label_2
    _geom_bond_distance
    _geom_bond_site_symmetry_2
    _ccdc_geom_bond_type
    H16    N104      1.03470      .   S
    H17    N105      1.03455      .   S
    H10    C76       1.09741      .   S
    H11    C77       1.09733      .   S
    N104   C76       1.47514      .   S
    N104   C74       1.47315      .   S
    N105   C77       1.47519      .   S
    N105   C75       1.47314      .   S
    C76    H8        1.10050      .   S
    C76    C78       1.52368      .   S
    C77    H9        1.10051      .   S
    C77    C79       1.52365      .   S
    H12    C78       1.10713      .   S
    H13    C79       1.10700      .   S
    H4     C74       1.09688      .   S
    H5     C75       1.09701      .   S
    C74    H6        1.09900      .   S
    C74    C72       1.52423      .   S
    C75    H7        1.09921      .   S
    C75    C73       1.52497      .   S
    C78    H14       1.09249      .   S
    C78    N106      1.48556      .   S
    C79    H15       1.09254      .   S
    C79    N107      1.48591      .   S
    H2     C72       1.10817      .   S
    H3     C73       1.10817      .   S
    C72    N106      1.47254      .   S
    C72    H0        1.09934      .   S
    C73    N107      1.47280      .   S
    C73    H1        1.09920      .   S
    H55    C97       1.09991      .   S
    H54    C96       1.09927      .   S
    N119   C97       1.47260      .   S
    N119   C103      1.48566      .   S
    N118   C96       1.47274      .   S
    N118   C102      1.48533      .   S
    C97    H57       1.10803      .   S
    C97    C99       1.52509      .   S
    C96    H56       1.10810      .   S
    C96    C98       1.52472      .   S
    H61    C99       1.09901      .   S
    H60    C98       1.09910      .   S
    H69    C103      1.09250      .   S
    H68    C102      1.09252      .   S
    C103   H67       1.10696      .   S
    C103   C101      1.52359      .   S
    C102   H66       1.10702      .   S
    C102   C100      1.52362      .   S
    C99    H59       0.99392  1_565   S
    C99    N117      1.47315      .   S
    C98    H58       0.99924  1_565   S
    C98    N116      1.47301      .   S
    H63    C101      1.10044      .   S
    H62    C100      1.10041      .   S
    C101   N117      1.47514      .   S
    C101   H65       1.09731      .   S
    C100   N116      1.47518      .   S
    C100   H64       1.09566      .   S
    N117   H71       1.03465      .   S
    N116   H70       1.03460      .   S
    H35    N109      1.03466      .   S
    H34    N108      1.03471      .   S
    H29    C85       1.09833      .   S
    H28    C84       1.09739      .   S
    N109   C85       1.47523      .   S
    N109   C83       1.47309      .   S
    N108   C84       1.47524      .   S
    N108   C82       1.47305      .   S
    C85    H27       1.10039      .   S
    C85    C87       1.52372      .   S
    C84    H26       1.10045      .   S
    C84    C86       1.52370      .   S
    H31    C87       1.10699      .   S
    H30    C86       1.10692      .   S
    H23    C83       1.09703  1_565   S
    H22    C82       1.09696  1_565   S
    C83    H25       1.09919      .   S
    C83    C81       1.52452      .   S
    C82    H24       1.09918      .   S
    C82    C80       1.52473      .   S
    C87    H33       1.09259      .   S
    C87    N111      1.48580      .   S
    C86    H32       1.09263      .   S
    C86    N110      1.48585      .   S
    H21    C81       1.10816      .   S
    H20    C80       1.10817      .   S
    C81    N111      1.47269      .   S
    C81    H19       1.09946      .   S
    C80    N110      1.47269      .   S
    C80    H18       1.09926      .   S
    H36    C88       1.09919      .   S
    H37    C89       1.09920      .   S
    N115   C89       1.47263      .   S
    N115   C95       1.48592      .   S
    N114   C88       1.47272      .   S
    N114   C94       1.48552      .   S
    C89    H39       1.10826      .   S
    C89    C91       1.52452      .   S
    C88    H38       1.10821      .   S
    C88    C90       1.52453      .   S
    H51    C95       1.09274      .   S
    H42    C90       1.09922      .   S
    H43    C91       1.09912      .   S
    H50    C94       1.09254      .   S
    C95    H49       1.10700      .   S
    C95    C93       1.52390      .   S
    C94    H48       1.10691      .   S
    C94    C92       1.52353      .   S
    C90    H40       1.09684      .   S
    C90    N112      1.47303      .   S
    C91    H41       1.09685      .   S
    C91    N113      1.47318      .   S
    H45    C93       1.10064      .   S
    H44    C92       1.10052      .   S
    C93    N113      1.47516      .   S
    C93    H47       1.09749      .   S
    C92    N112      1.47514      .   S
    C92    H46       1.09748      .   S
    N113   H53       1.03461      .   S
    N112   H52       1.03466      .   S
