# CIF file generated by openbabel 2.4.90, see http://openbabel.sf.net
data_I
_chemical_name_common ''
_cell_length_a 13.396
_cell_length_b 15.744
_cell_length_c 23.744
_cell_angle_alpha 89.872
_cell_angle_beta 90.124
_cell_angle_gamma 101.064
_space_group_name_H-M_alt 'P 1'
_space_group_name_Hall 'P 1'
loop_
    _symmetry_equiv_pos_as_xyz
    x,y,z
loop_
    _atom_site_label
    _atom_site_type_symbol
    _atom_site_fract_x
    _atom_site_fract_y
    _atom_site_fract_z
    _atom_site_occupancy
    C0      C    0.27560   0.65316   0.04540   1.000
    C1      C    0.77856   0.65358   0.04541   1.000
    C2      C    0.27628   0.15463   0.45338   1.000
    C3      C    0.77627   0.15447   0.45325   1.000
    C4      C    0.22528   0.34488   0.95358   1.000
    C5      C    0.72516   0.34486   0.95367   1.000
    C6      C    0.22576   0.84552   0.54627   1.000
    C7      C    0.72524   0.84542   0.54602   1.000
