# CIF file generated by openbabel 2.4.90, see http://openbabel.sf.net
data_I
_chemical_name_common ''
_cell_length_a 13.396
_cell_length_b 15.744
_cell_length_c 23.744
_cell_angle_alpha 89.872
_cell_angle_beta 90.124
_cell_angle_gamma 101.064
_space_group_name_H-M_alt 'P 1'
_space_group_name_Hall 'P 1'
loop_
    _symmetry_equiv_pos_as_xyz
    x,y,z
loop_
    _atom_site_label
    _atom_site_type_symbol
    _atom_site_fract_x
    _atom_site_fract_y
    _atom_site_fract_z
    _atom_site_occupancy
    N0      N    0.46439   0.35405   0.33029   1.000
    N1      N    0.46163   0.85216   0.16990   1.000
    N2      N    0.53774   0.14541   0.82997   1.000
    N3      N    0.96358   0.85200   0.16998   1.000
    N4      N    0.03788   0.14540   0.82993   1.000
    N5      N    0.03753   0.64511   0.66894   1.000
    N6      N    0.96387   0.35397   0.33019   1.000
    N7      N    0.53756   0.64564   0.66915   1.000
    Zr8     Zr   0.25069   0.49918   0.99946   1.000
    O9      O    0.33389   0.51964   0.04325   1.000
    O10     O    0.25670   0.44644   0.05294   1.000
    O11     O    0.18147   0.36790   0.93997   1.000
    O12     O    0.16713   0.47838   0.95595   1.000
    O13     O    0.24492   0.55197   0.94602   1.000
    O14     O    0.31924   0.63011   0.05925   1.000
    Zr15    Zr   0.75168   0.49926   0.99947   1.000
    O16     O    0.68190   0.36794   0.94001   1.000
    O17     O    0.66771   0.47848   0.95603   1.000
    O18     O    0.74539   0.55196   0.94593   1.000
    O19     O    0.82098   0.63017   0.05928   1.000
    O20     O    0.83556   0.51964   0.04321   1.000
    O21     O    0.75743   0.44651   0.05300   1.000
    Zr22    Zr   0.25081   0.00004   0.49975   1.000
    O23     O    0.33441   0.02076   0.45645   1.000
    O24     O    0.25662   0.94694   0.44668   1.000
    O25     O    0.16700   0.97896   0.54303   1.000
    O26     O    0.24487   0.05265   0.55301   1.000
    O27     O    0.32029   0.13142   0.44018   1.000
    O28     O    0.18154   0.86841   0.55928   1.000
    Zr29    Zr   0.75068   0.99998   0.49965   1.000
    O30     O    0.68135   0.86850   0.55922   1.000
    O31     O    0.82006   0.13131   0.44005   1.000
    O32     O    0.83373   0.02036   0.45586   1.000
    O33     O    0.75594   0.94693   0.44642   1.000
    O34     O    0.66707   0.97911   0.54301   1.000
    O35     O    0.74489   0.05267   0.55293   1.000
loop_
    _geom_bond_atom_site_label_1
    _geom_bond_atom_site_label_2
    _geom_bond_distance
    _geom_bond_site_symmetry_2
    _ccdc_geom_bond_type
    Zr8    O9        1.51192  1_556   S
    N1     O9        5.99892      .   S
    Zr8    O10       1.52614  1_556   S
    N6     O10       7.66282  1_655   S
    Zr8    O11       2.52955      .   S
    N4     O11       4.49797      .   S
    Zr8    O12       1.51091      .   S
    N4     O12       6.00000      .   S
    Zr8    O13       1.52517      .   S
    N7     O13       7.65562      .   S
    Zr8    O14       2.52761  1_556   S
    N1     O14       4.49698      .   S
    Zr15   O16       2.53127      .   S
    N2     O16       4.50038      .   S
    Zr15   O17       1.51384      .   S
    N2     O17       6.00269      .   S
    Zr15   O18       1.52752      .   S
    N5     O18       7.65426  1_455   S
    Zr15   O19       2.52959  1_556   S
    N3     O19       4.49616      .   S
    Zr15   O20       1.51720  1_556   S
    N3     O20       5.99896      .   S
    Zr15   O21       1.52646  1_556   S
    N0     O21       7.66516      .   S
    Zr22   O23       1.51030      .   S
    N0     O23       5.99870      .   S
    Zr22   O24       1.52420  1_545   S
    N3     O24       7.64775  1_655   S
    Zr22   O25       1.51224  1_545   S
    N5     O25       6.00223      .   S
    Zr22   O26       1.52363      .   S
    N2     O26       7.64885      .   S
    Zr22   O27       2.52959      .   S
    N0     O27       4.49496      .   S
    Zr22   O28       2.53148  1_545   S
    N5     O28       4.49868      .   S
    Zr29   O30       2.53043      .   S
    N7     O30       4.49680      .   S
    Zr29   O31       2.52911  1_565   S
    N6     O31       4.49386      .   S
    Zr29   O32       1.51276  1_565   S
    N6     O32       5.99741      .   S
    Zr29   O33       1.52568      .   S
    N1     O33       7.65188      .   S
    Zr29   O34       1.51154      .   S
    N7     O34       6.00015      .   S
    Zr29   O35       1.52476  1_565   S
    N4     O35       7.65004  1_455   S
