# CIF file generated by openbabel 2.4.90, see http://openbabel.sf.net
data_I
_chemical_name_common ''
_cell_length_a 14.732
_cell_length_b 14.779
_cell_length_c 15.757
_cell_angle_alpha 117.881
_cell_angle_beta 97.495
_cell_angle_gamma 89.92
_space_group_name_H-M_alt 'P 1'
_space_group_name_Hall 'P 1'
loop_
    _symmetry_equiv_pos_as_xyz
    x,y,z
loop_
    _atom_site_label
    _atom_site_type_symbol
    _atom_site_fract_x
    _atom_site_fract_y
    _atom_site_fract_z
    _atom_site_occupancy
    Zr0     Zr   0.12484   0.05802   0.30000   1.000
    Zr1     Zr   0.62483   0.05792   0.00010   1.000
    Zr2     Zr   0.37483   0.94237   0.99976   1.000
    Zr3     Zr   0.87507   0.94247   0.10000   1.000
    Zr4     Zr   0.25043   0.99987   0.50010   1.000
    Zr5     Zr   0.75044   0.00019   0.50000   1.000
    Zr6     Zr   0.99963   0.49990   0.49991   1.000
    Zr7     Zr   0.49988   0.50023   0.50003   1.000
    N8      N    0.50614   0.28846   0.33936   1.000
    O9      O    0.55841   0.21748   0.19665   1.000
    O10     O    0.50225   0.37297   0.43599   1.000
    O11     O    0.49061   0.36413   0.38739   1.000
    N12     N    0.26015   0.05103   0.34171   1.000
    O13     O    0.24284   0.02348   0.38862   1.000
    O14     O    0.31043   0.97935   0.19772   1.000
    O15     O    0.20676   0.05794   0.33537   1.000
    O16     O    0.25511   0.06308   0.43713   1.000
    N17     N    0.99388   0.71152   0.66038   1.000
    O18     O    0.00922   0.63589   0.61243   1.000
    O19     O    0.99699   0.62712   0.56389   1.000
    N20     N    0.49420   0.71181   0.66056   1.000
    O21     O    0.50946   0.63625   0.61261   1.000
    O22     O    0.44163   0.78280   0.80326   1.000
    O23     O    0.49791   0.62736   0.56400   1.000
    N24     N    0.74387   0.94883   0.66062   1.000
    O25     O    0.69141   0.02074   0.80338   1.000
    O26     O    0.74784   0.93687   0.56406   1.000
    O27     O    0.75944   0.97646   0.61263   1.000
    N28     N    0.24425   0.94865   0.66047   1.000
    O29     O    0.25965   0.97622   0.61263   1.000
    O30     O    0.24808   0.93669   0.56402   1.000
    N31     N    0.75598   0.05137   0.33912   1.000
    O32     O    0.75285   0.06343   0.43579   1.000
    O33     O    0.80842   0.97953   0.22149   1.000
    O34     O    0.74076   0.02378   0.38726   1.000
    N35     N    0.00577   0.28843   0.33942   1.000
    O36     O    0.00193   0.37283   0.43594   1.000
    O37     O    0.99034   0.36391   0.38731   1.000
    N38     N    0.29739   0.11108   0.10676   1.000
    O39     O    0.31675   0.06890   0.08001   1.000
    N40     N    0.79731   0.11101   0.10708   1.000
    O41     O    0.75419   0.09774   0.08034   1.000
    N42     N    0.54723   0.99625   0.10700   1.000
    O43     O    0.56663   0.01166   0.08028   1.000
    N44     N    0.15199   0.05690   0.28467   1.000
    O45     O    0.14520   0.05718   0.28850   1.000
    N46     N    0.45255   0.00396   0.89272   1.000
    O47     O    0.43312   0.98856   0.91948   1.000
    N48     N    0.95242   0.00425   0.89301   1.000
    N49     N    0.04744   0.99640   0.10726   1.000
    N50     N    0.70253   0.88939   0.89300   1.000
    O51     O    0.68311   0.93152   0.91978   1.000
    N52     N    0.20235   0.88929   0.89283   1.000
    O53     O    0.24547   0.90256   0.91956   1.000
loop_
    _geom_bond_atom_site_label_1
    _geom_bond_atom_site_label_2
    _geom_bond_distance
    _geom_bond_site_symmetry_2
    _ccdc_geom_bond_type
    N8     O9        2.23450      .   S
    Zr1    O9        3.17240      .   S
    N8     O10       1.45787      .   S
    Zr7    O10       1.67052      .   S
    N8     O11       1.06236      .   S
    Zr7    O11       1.95274      .   S
    N12    O13       1.05275      .   S
    Zr4    O13       1.93432  1_565   S
    N12    O14       2.23750  1_545   S
    Zr2    O14       3.17886  1_556   S
    N12    O15       0.79234      .   S
    Zr0    O15       1.26185      .   S
    N12    O16       1.44103      .   S
    Zr4    O16       1.65731  1_565   S
    N17    O18       1.06068  1_655   S
    Zr6    O18       1.95083  1_655   S
    N17    O19       1.45382      .   S
    Zr6    O19       1.67045      .   S
    N20    O21       1.05975      .   S
    Zr7    O21       1.95145      .   S
    N20    O22       2.23648      .   S
    Zr2    O22       3.17431      .   S
    N20    O23       1.45637      .   S
    Zr7    O23       1.66837      .   S
    N24    O25       2.23662  1_565   S
    Zr1    O25       3.17351  1_554   S
    N24    O26       1.45644      .   S
    Zr5    O26       1.67018  1_545   S
    N24    O27       1.06079      .   S
    Zr5    O27       1.95210  1_545   S
    N28    O29       1.05731      .   S
    Zr4    O29       1.94968      .   S
    N28    O30       1.45426      .   S
    Zr4    O30       1.66636      .   S
    N31    O32       1.45541      .   S
    Zr5    O32       1.67113      .   S
    N31    O33       1.92102  1_545   S
    Zr3    O33       2.10643      .   S
    N31    O34       1.06107      .   S
    Zr5    O34       1.95208      .   S
    N35    O36       1.45604      .   S
    Zr6    O36       1.66795  1_655   S
    N35    O37       1.05930  1_455   S
    Zr6    O37       1.95142      .   S
    N38    O39       0.65779      .   S
    Zr2    O39       1.97338  1_566   S
    N40    O41       0.68761      .   S
    Zr1    O41       2.06284      .   S
    N42    O43       0.65745  1_565   S
    Zr1    O43       1.97234      .   S
    N44    O45       0.12249      .   S
    Zr0    O45       0.36747      .   S
    N46    O47       0.65795  1_545   S
    Zr2    O47       1.97386      .   S
    N50    O51       0.65795      .   S
    Zr1    O51       1.97385  1_544   S
    N52    O53       0.68752      .   S
    Zr2    O53       2.06257      .   S
