# CIF file generated by openbabel 2.4.90, see http://openbabel.sf.net
data_I
_chemical_name_common ''
_cell_length_a 15.583
_cell_length_b 17.778
_cell_length_c 18.307
_cell_angle_alpha 112.399
_cell_angle_beta 89.999
_cell_angle_gamma 89.946
_space_group_name_H-M_alt 'P 1'
_space_group_name_Hall 'P 1'
loop_
    _symmetry_equiv_pos_as_xyz
    x,y,z
loop_
    _atom_site_label
    _atom_site_type_symbol
    _atom_site_fract_x
    _atom_site_fract_y
    _atom_site_fract_z
    _atom_site_occupancy
    Zr0     Zr   0.09626   0.00259   0.16627   1.000
    Zr1     Zr   0.90067   0.00000   0.16639   1.000
    Zr2     Zr   0.50068   0.49779   0.16613   1.000
    Zr3     Zr   0.40376   0.50091   0.00296   1.000
    Zr4     Zr   0.59612   0.49775   0.33358   1.000
    Zr5     Zr   0.40056   0.49956   0.33311   1.000
    Zr6     Zr   0.00060   0.00232   0.33370   1.000
    Zr7     Zr   0.90360   0.99867   0.49695   1.000
    Zr8     Zr   0.90379   0.99742   0.83364   1.000
    Zr9     Zr   0.09934   0.99941   0.83368   1.000
    Zr10    Zr   0.49991   0.50218   0.83374   1.000
    Zr11    Zr   0.59975   0.49892   0.99692   1.000
    Zr12    Zr   0.40397   0.50204   0.66649   1.000
    Zr13    Zr   0.59951   0.50081   0.66636   1.000
    Zr14    Zr   0.99985   0.99773   0.66631   1.000
    Zr15    Zr   0.09962   0.00161   0.50318   1.000
    Zr16    Zr   0.49997   0.50002   0.49993   1.000
    N17     N    0.26928   0.76619   0.25163   1.000
    O18     O    0.20116   0.86248   0.35813   1.000
    O19     O    0.32161   0.65643   0.14666   1.000
    O20     O    0.16512   0.86881   0.28906   1.000
    O21     O    0.36904   0.65973   0.21259   1.000
    N22     N    0.24995   0.25164   0.41723   1.000
    O23     O    0.31015   0.35549   0.52270   1.000
    O24     O    0.14179   0.15436   0.37799   1.000
    O25     O    0.35840   0.34849   0.45628   1.000
    O26     O    0.18970   0.14848   0.31120   1.000
    N27     N    0.73177   0.23341   0.74760   1.000
    O28     O    0.63192   0.34006   0.78703   1.000
    O29     O    0.80052   0.13731   0.64130   1.000
    O30     O    0.68057   0.34343   0.85266   1.000
    O31     O    0.83585   0.13100   0.71039   1.000
    N32     N    0.24886   0.74826   0.58376   1.000
    O33     O    0.18903   0.85078   0.68995   1.000
    O34     O    0.30976   0.64679   0.47741   1.000
    O35     O    0.34454   0.63975   0.54559   1.000
    O36     O    0.15411   0.85732   0.62158   1.000
    N37     N    0.99564   0.07745   0.12967   1.000
    O38     O    0.02108   0.05139   0.13698   1.000
    O39     O    0.97219   0.05074   0.13701   1.000
    N40     N    0.75124   0.25160   0.41632   1.000
    O41     O    0.65546   0.36014   0.45431   1.000
    O42     O    0.84616   0.14265   0.37869   1.000
    O43     O    0.69031   0.35328   0.52243   1.000
    O44     O    0.81103   0.14881   0.31021   1.000
    N45     N    0.25135   0.24832   0.08313   1.000
    O46     O    0.31108   0.35104   0.18917   1.000
    O47     O    0.34626   0.35725   0.12072   1.000
    O48     O    0.19031   0.14674   0.97726   1.000
    N49     N    0.75014   0.74835   0.58268   1.000
    O50     O    0.85837   0.84569   0.62189   1.000
    O51     O    0.68994   0.64440   0.47728   1.000
    O52     O    0.64164   0.65152   0.54365   1.000
    O53     O    0.81038   0.85154   0.68868   1.000
    N54     N    0.74934   0.24778   0.08210   1.000
    O55     O    0.68941   0.35138   0.18845   1.000
    O56     O    0.64150   0.34541   0.12171   1.000
    O57     O    0.80921   0.14361   0.97697   1.000
    N58     N    0.76963   0.73366   0.24824   1.000
    O59     O    0.86922   0.84023   0.28723   1.000
    O60     O    0.66538   0.63118   0.21086   1.000
    O61     O    0.70138   0.63765   0.14185   1.000
    O62     O    0.82181   0.84327   0.35319   1.000
    N63     N    0.49878   0.57411   0.29605   1.000
    O64     O    0.47431   0.54814   0.30358   1.000
    O65     O    0.49934   0.54770   0.26183   1.000
    O66     O    0.52320   0.54769   0.30369   1.000
    N67     N    0.23195   0.26645   0.75233   1.000
    O68     O    0.30110   0.36220   0.85853   1.000
    O69     O    0.13194   0.15990   0.71305   1.000
    O70     O    0.33601   0.36881   0.78949   1.000
    O71     O    0.18049   0.15678   0.64737   1.000
    N72     N    0.99930   0.92594   0.20361   1.000
    O73     O    0.97469   0.95179   0.19603   1.000
    O74     O    0.02359   0.95243   0.19600   1.000
    O75     O    0.99967   0.95237   0.23786   1.000
    N76     N    0.00000   0.07400   0.79626   1.000
    O77     O    0.97595   0.04752   0.80392   1.000
    O78     O    0.02483   0.04801   0.80393   1.000
    O79     O    0.99996   0.04759   0.76208   1.000
    N80     N    0.50338   0.42322   0.03547   1.000
    O81     O    0.47846   0.45001   0.02933   1.000
    O82     O    0.50269   0.44923   0.07012   1.000
    O83     O    0.52746   0.44951   0.02782   1.000
    N84     N    0.49986   0.57675   0.96456   1.000
    O85     O    0.52488   0.54992   0.97064   1.000
    O86     O    0.47588   0.55042   0.97215   1.000
    O87     O    0.49992   0.55073   0.92984   1.000
    N88     N    0.74890   0.75167   0.91626   1.000
    O89     O    0.68909   0.64928   0.81008   1.000
    O90     O    0.65414   0.64268   0.87847   1.000
    O91     O    0.80983   0.85299   0.02246   1.000
    N92     N    0.25073   0.75205   0.91745   1.000
    O93     O    0.19083   0.85631   0.02276   1.000
    O94     O    0.35869   0.65442   0.87808   1.000
    O95     O    0.31068   0.64843   0.81137   1.000
    N96     N    0.49594   0.42280   0.37027   1.000
    O97     O    0.47234   0.44933   0.36279   1.000
    O98     O    0.52123   0.44888   0.36291   1.000
    O99     O    0.49719   0.44945   0.40449   1.000
    N100    N    0.50192   0.42587   0.70360   1.000
    O101    O    0.50130   0.45229   0.73789   1.000
    O102    O    0.47732   0.45225   0.69607   1.000
    O103    O    0.52620   0.45194   0.69604   1.000
    N104    N    0.00135   0.07689   0.46452   1.000
    O105    O    0.97725   0.04997   0.47065   1.000
    O106    O    0.00150   0.05088   0.42984   1.000
    O107    O    0.02625   0.05070   0.47220   1.000
    N108    N    0.00020   0.92337   0.53543   1.000
    O109    O    0.00006   0.94933   0.57016   1.000
    O110    O    0.02501   0.95030   0.52938   1.000
    O111    O    0.97600   0.94957   0.52782   1.000
    N112    N    0.50364   0.57731   0.62958   1.000
    O113    O    0.52737   0.55084   0.63696   1.000
    O114    O    0.50249   0.55064   0.59535   1.000
    O115    O    0.47849   0.55115   0.63699   1.000
    N116    N    0.00413   0.92239   0.87037   1.000
    O117    O    0.02765   0.94899   0.86304   1.000
    O118    O    0.97876   0.94849   0.86303   1.000
loop_
    _geom_bond_atom_site_label_1
    _geom_bond_atom_site_label_2
    _geom_bond_distance
    _geom_bond_site_symmetry_2
    _ccdc_geom_bond_type
    N17    O18       2.30475      .   S
    Zr15   O18       3.26489  1_545   S
    N17    O19       2.30316      .   S
    Zr3    O19       3.26395      .   S
    N17    O20       2.33972      .   S
    Zr6    O20       3.37406  1_545   S
    N17    O21       2.33950      .   S
    Zr2    O21       3.36779      .   S
    N22    O23       2.30278      .   S
    Zr12   O23       3.26130      .   S
    N22    O24       2.32518      .   S
    Zr6    O24       3.33846      .   S
    N22    O25       2.32348      .   S
    Zr16   O25       3.33668      .   S
    N22    O26       2.30288      .   S
    Zr0    O26       3.26340      .   S
    N27    O28       2.34270      .   S
    Zr10   O28       3.37349      .   S
    N27    O29       2.30579      .   S
    Zr7    O29       3.26599  1_565   S
    N27    O30       2.30033      .   S
    Zr11   O30       3.26063      .   S
    N27    O31       2.33632      .   S
    Zr14   O31       3.36562  1_565   S
    N32    O33       2.29487      .   S
    Zr9    O33       3.24855      .   S
    N32    O34       2.29480      .   S
    Zr5    O34       3.24876      .   S
    N32    O35       2.32379      .   S
    Zr16   O35       3.33800      .   S
    N32    O36       2.32162      .   S
    Zr14   O36       3.33327  1_655   S
    N37    O38       0.66076  1_655   S
    Zr0    O38       1.66293      .   S
    N37    O39       0.65266      .   S
    Zr1    O39       1.64829      .   S
    N40    O41       2.32529      .   S
    Zr16   O41       3.34041      .   S
    N40    O42       2.32193      .   S
    Zr6    O42       3.33416  1_455   S
    N40    O43       2.29411      .   S
    Zr13   O43       3.24816      .   S
    N40    O44       2.29607      .   S
    Zr1    O44       3.25074      .   S
    N45    O46       2.29595      .   S
    Zr5    O46       3.25033      .   S
    N45    O47       2.32407      .   S
    Zr2    O47       3.33956      .   S
    N45    O48       2.29313  1_554   S
    Zr9    O48       3.24639  1_565   S
    N49    O50       2.32666      .   S
    Zr14   O50       3.34117      .   S
    N49    O51       2.30298      .   S
    Zr4    O51       3.26131      .   S
    N49    O52       2.32391      .   S
    Zr16   O52       3.33723      .   S
    N49    O53       2.30276      .   S
    Zr8    O53       3.26336      .   S
    N54    O55       2.30627      .   S
    Zr4    O55       3.26608      .   S
    N54    O56       2.32331      .   S
    Zr2    O56       3.33545      .   S
    N54    O57       2.29891  1_554   S
    Zr8    O57       3.25677  1_565   S
    N58    O59       2.34136      .   S
    Zr6    O59       3.37085  1_445   S
    N58    O60       2.34151      .   S
    Zr2    O60       3.37818      .   S
    N58    O61       2.30394      .   S
    Zr11   O61       3.26357  1_556   S
    N58    O62       2.30208      .   S
    Zr7    O62       3.26324      .   S
    N63    O64       0.65302      .   S
    Zr5    O64       1.64814      .   S
    N63    O65       0.62354      .   S
    Zr2    O65       1.63478      .   S
    N63    O66       0.65942      .   S
    Zr4    O66       1.65743      .   S
    N67    O68       2.30651      .   S
    Zr3    O68       3.26650  1_554   S
    N67    O69       2.34552      .   S
    Zr14   O69       3.37827  1_665   S
    N67    O70       2.33794      .   S
    Zr10   O70       3.36893      .   S
    N67    O71       2.29879      .   S
    Zr15   O71       3.25933      .   S
    N72    O73       0.65248      .   S
    Zr1    O73       1.64685  1_545   S
    N72    O74       0.65940  1_655   S
    Zr0    O74       1.65684  1_545   S
    N72    O75       0.62404      .   S
    Zr6    O75       1.63710  1_445   S
    N76    O77       0.65758  1_455   S
    Zr8    O77       1.65072  1_565   S
    N76    O78       0.65724      .   S
    Zr9    O78       1.65776  1_565   S
    N76    O79       0.62283  1_455   S
    Zr14   O79       1.63568  1_565   S
    N80    O81       0.65634      .   S
    Zr3    O81       1.65469      .   S
    N80    O82       0.62669      .   S
    Zr2    O82       1.63677      .   S
    N80    O83       0.65516      .   S
    Zr11   O83       1.65563  1_556   S
    N84    O85       0.65715      .   S
    Zr11   O85       1.65690      .   S
    N84    O86       0.65418      .   S
    Zr3    O86       1.65410  1_554   S
    N84    O87       0.62758      .   S
    Zr10   O87       1.63795      .   S
    N88    O89       2.29505      .   S
    Zr13   O89       3.24847      .   S
    N88    O90       2.32325      .   S
    Zr10   O90       3.33729      .   S
    N88    O91       2.29355  1_556   S
    Zr1    O91       3.24594  1_545   S
    N92    O93       2.30147  1_556   S
    Zr0    O93       3.25933  1_545   S
    N92    O94       2.32450      .   S
    Zr10   O94       3.33786      .   S
    N92    O95       2.30379      .   S
    Zr12   O95       3.26395      .   S
    N96    O97       0.65218      .   S
    Zr5    O97       1.64670      .   S
    N96    O98       0.66060      .   S
    Zr4    O98       1.66204      .   S
    N96    O99       0.62548      .   S
    Zr16   O99       1.63272      .   S
    N100   O101      0.62444      .   S
    Zr10   O101      1.63718      .   S
    N100   O102      0.65937      .   S
    Zr12   O102      1.65735      .   S
    N100   O103      0.65303      .   S
    Zr13   O103      1.64818      .   S
    N104   O105      0.65113  1_455   S
    Zr7    O105      1.64841  1_565   S
    N104   O106      0.62709      .   S
    Zr6    O106      1.63858      .   S
    N104   O107      0.66087      .   S
    Zr15   O107      1.66301      .   S
    N108   O109      0.62746      .   S
    Zr14   O109      1.63835  1_655   S
    N108   O110      0.65698      .   S
    Zr15   O110      1.65811  1_545   S
    N108   O111      0.65393  1_455   S
    Zr7    O111      1.65189      .   S
    N112   O113      0.65154      .   S
    Zr13   O113      1.64544      .   S
    N112   O114      0.62555      .   S
    Zr16   O114      1.63242      .   S
    N112   O115      0.66087      .   S
    Zr12   O115      1.66238      .   S
    N116   O117      0.65168      .   S
    Zr9    O117      1.64602      .   S
    N116   O118      0.66092  1_455   S
    Zr8    O118      1.66309      .   S
