# CIF file generated by openbabel 2.4.90, see http://openbabel.sf.net
data_I
_chemical_name_common ''
_cell_length_a 15.583
_cell_length_b 17.778
_cell_length_c 18.307
_cell_angle_alpha 112.399
_cell_angle_beta 89.999
_cell_angle_gamma 89.946
_space_group_name_H-M_alt 'P 1'
_space_group_name_Hall 'P 1'
loop_
    _symmetry_equiv_pos_as_xyz
    x,y,z
loop_
    _atom_site_label
    _atom_site_type_symbol
    _atom_site_fract_x
    _atom_site_fract_y
    _atom_site_fract_z
    _atom_site_occupancy
    C0      C    0.09626   0.00259   0.16627   1.000
    C1      C    0.90067   0.00000   0.16639   1.000
    C2      C    0.50068   0.49779   0.16613   1.000
    C3      C    0.40376   0.50091   0.00296   1.000
    C4      C    0.59612   0.49775   0.33358   1.000
    C5      C    0.40056   0.49956   0.33311   1.000
    C6      C    0.00060   0.00232   0.33370   1.000
    C7      C    0.90360   0.99867   0.49695   1.000
    C8      C    0.90379   0.99742   0.83364   1.000
    C9      C    0.09934   0.99941   0.83368   1.000
    C10     C    0.49991   0.50218   0.83374   1.000
    C11     C    0.59975   0.49892   0.99692   1.000
    C12     C    0.40397   0.50204   0.66649   1.000
    C13     C    0.59951   0.50081   0.66636   1.000
    C14     C    0.99985   0.99773   0.66631   1.000
    C15     C    0.09962   0.00161   0.50318   1.000
    C16     C    0.00000   0.99995   0.10000   1.000
    C17     C    0.49997   0.50002   0.49993   1.000
    C18     C    0.99449   0.10683   0.13705   1.000
    C19     C    0.99911   0.89661   0.19670   1.000
    C20     C    0.50343   0.39374   0.02754   1.000
    C21     C    0.89342   0.22694   0.12998   1.000
    C22     C    0.70263   0.15980   0.94702   1.000
    C23     C    0.79611   0.33578   0.21817   1.000
    C24     C    0.60533   0.26877   0.03519   1.000
    C25     C    0.82229   0.83937   0.85720   1.000
    C26     C    0.75168   0.79017   0.06165   1.000
    C27     C    0.74448   0.71438   0.77088   1.000
    C28     C    0.67459   0.66461   0.97534   1.000
    C29     C    0.25303   0.71388   0.10563   1.000
    C30     C    0.37493   0.70190   0.31164   1.000
    C31     C    0.16776   0.83399   0.19154   1.000
    C32     C    0.28639   0.81939   0.39760   1.000
    C33     C    0.49495   0.39343   0.36302   1.000
    C34     C    0.49846   0.60345   0.30300   1.000
    C35     C    0.00000   0.10636   0.47244   1.000
    C36     C    0.39296   0.27311   0.36844   1.000
    C37     C    0.20489   0.33839   0.55384   1.000
    C38     C    0.29510   0.16476   0.28079   1.000
    C39     C    0.10697   0.22997   0.46610   1.000
    C40     C    0.32172   0.66010   0.64270   1.000
    C41     C    0.25206   0.71001   0.43840   1.000
    C42     C    0.24405   0.78532   0.72912   1.000
    C43     C    0.17514   0.83585   0.52483   1.000
    C44     C    0.75342   0.78622   0.39421   1.000
    C45     C    0.87552   0.79743   0.18799   1.000
    C46     C    0.66810   0.66624   0.30857   1.000
    C47     C    0.78686   0.68013   0.10224   1.000
    C48     C    0.00525   0.89301   0.86300   1.000
    C49     C    0.00000   0.10334   0.80300   1.000
    C50     C    0.49970   0.60623   0.97262   1.000
    C51     C    0.10678   0.77297   0.86989   1.000
    C52     C    0.29734   0.84005   0.05305   1.000
    C53     C    0.20410   0.66405   0.78183   1.000
    C54     C    0.39462   0.73093   0.96505   1.000
    C55     C    0.17805   0.16119   0.14297   1.000
    C56     C    0.24849   0.20891   0.93769   1.000
    C57     C    0.25596   0.28640   0.22867   1.000
    C58     C    0.32571   0.33469   0.02335   1.000
    C59     C    0.74804   0.28553   0.89348   1.000
    C60     C    0.62569   0.29760   0.68771   1.000
    C61     C    0.83289   0.16520   0.80747   1.000
    C62     C    0.71395   0.17995   0.60159   1.000
    C63     C    0.50459   0.60668   0.63684   1.000
    C64     C    0.50236   0.39653   0.69660   1.000
    C65     C    0.00041   0.89388   0.52737   1.000
    C66     C    0.60721   0.72688   0.63160   1.000
    C67     C    0.79517   0.66148   0.44610   1.000
    C68     C    0.70506   0.83533   0.71909   1.000
    C69     C    0.89305   0.77005   0.53365   1.000
    C70     C    0.67849   0.33947   0.35694   1.000
    C71     C    0.74786   0.29026   0.56171   1.000
    C72     C    0.75625   0.21416   0.27089   1.000
    C73     C    0.82490   0.16434   0.47563   1.000
    C74     C    0.24764   0.21424   0.60650   1.000
    C75     C    0.12559   0.20303   0.81200   1.000
    C76     C    0.33319   0.33398   0.69214   1.000
    C77     C    0.21463   0.32002   0.89853   1.000
    C78     C    0.86216   0.12100   0.98080   1.000
    C79     C    0.80396   0.18663   0.03316   1.000
    C80     C    0.83008   0.23626   0.10970   1.000
    C81     C    0.72259   0.19867   0.00641   1.000
    C82     C    0.77608   0.29688   0.15878   1.000
    C83     C    0.66865   0.25936   0.05540   1.000
    C84     C    0.69473   0.30894   0.13204   1.000
    C85     C    0.63646   0.37456   0.18439   1.000
    C86     C    0.84195   0.89465   0.01627   1.000
    C87     C    0.79266   0.82164   0.96471   1.000
    C88     C    0.79029   0.80069   0.88271   1.000
    C89     C    0.75006   0.77276   0.99792   1.000
    C90     C    0.74659   0.73135   0.83459   1.000
    C91     C    0.70657   0.70331   0.94984   1.000
    C92     C    0.70467   0.68206   0.86778   1.000
    C93     C    0.65700   0.60789   0.81621   1.000
    C94     C    0.37116   0.62857   0.15195   1.000
    C95     C    0.31936   0.70036   0.20322   1.000
    C96     C    0.26040   0.73757   0.16958   1.000
    C97     C    0.32920   0.73079   0.28560   1.000
    C98     C    0.21225   0.80400   0.21754   1.000
    C99     C    0.27970   0.79607   0.33363   1.000
    C100    C    0.22048   0.83303   0.30000   1.000
    C101    C    0.16502   0.90185   0.35130   1.000
    C102    C    0.36339   0.37791   0.51849   1.000
    C103    C    0.30491   0.31244   0.46648   1.000
    C104    C    0.33010   0.26350   0.38934   1.000
    C105    C    0.22413   0.30004   0.49400   1.000
    C106    C    0.27580   0.20314   0.34060   1.000
    C107    C    0.16984   0.23963   0.44527   1.000
    C108    C    0.19498   0.19077   0.36808   1.000
    C109    C    0.13645   0.12549   0.31581   1.000
    C110    C    0.34178   0.60501   0.48365   1.000
    C111    C    0.29256   0.67818   0.53528   1.000
    C112    C    0.28995   0.69898   0.61726   1.000
    C113    C    0.25025   0.72732   0.50214   1.000
    C114    C    0.24636   0.76847   0.66542   1.000
    C115    C    0.20689   0.79693   0.55027   1.000
    C116    C    0.20473   0.81801   0.63229   1.000
    C117    C    0.15706   0.89226   0.68389   1.000
    C118    C    0.87145   0.87117   0.34776   1.000
    C119    C    0.81985   0.79934   0.29652   1.000
    C120    C    0.76084   0.76234   0.33027   1.000
    C121    C    0.82975   0.76873   0.21413   1.000
    C122    C    0.71263   0.69602   0.28244   1.000
    C123    C    0.78018   0.70356   0.16622   1.000
    C124    C    0.72089   0.66683   0.19994   1.000
    C125    C    0.66524   0.59825   0.14870   1.000
    C126    C    0.13790   0.87892   0.01906   1.000
    C127    C    0.19612   0.81325   0.96680   1.000
    C128    C    0.17007   0.76361   0.89019   1.000
    C129    C    0.27742   0.80117   0.99364   1.000
    C130    C    0.22408   0.70295   0.84124   1.000
    C131    C    0.33138   0.74042   0.94473   1.000
    C132    C    0.30536   0.69085   0.86807   1.000
    C133    C    0.36361   0.62518   0.81577   1.000
    C134    C    0.15810   0.10515   0.98380   1.000
    C135    C    0.20755   0.17820   0.03508   1.000
    C136    C    0.21001   0.19961   0.11710   1.000
    C137    C    0.25016   0.22671   0.00146   1.000
    C138    C    0.25379   0.26908   0.16491   1.000
    C139    C    0.29372   0.29628   0.04918   1.000
    C140    C    0.29564   0.31805   0.13130   1.000
    C141    C    0.34334   0.39240   0.18243   1.000
    C142    C    0.63055   0.37146   0.84749   1.000
    C143    C    0.68164   0.29922   0.79602   1.000
    C144    C    0.74051   0.26182   0.82956   1.000
    C145    C    0.67147   0.26866   0.71366   1.000
    C146    C    0.78841   0.19526   0.78153   1.000
    C147    C    0.72079   0.20326   0.66555   1.000
    C148    C    0.78014   0.16631   0.69904   1.000
    C149    C    0.83603   0.09784   0.64780   1.000
    C150    C    0.63670   0.62199   0.48156   1.000
    C151    C    0.69519   0.68748   0.53351   1.000
    C152    C    0.67003   0.73650   0.61064   1.000
    C153    C    0.77595   0.69988   0.50593   1.000
    C154    C    0.72434   0.79690   0.65930   1.000
    C155    C    0.83023   0.76036   0.55458   1.000
    C156    C    0.80512   0.80928   0.63175   1.000
    C157    C    0.86363   0.87462   0.68397   1.000
    C158    C    0.65819   0.39494   0.51606   1.000
    C159    C    0.70747   0.32174   0.46458   1.000
    C160    C    0.71021   0.30072   0.38257   1.000
    C161    C    0.74975   0.27278   0.49795   1.000
    C162    C    0.75386   0.23116   0.33461   1.000
    C163    C    0.79317   0.20312   0.45003   1.000
    C164    C    0.79544   0.18179   0.36798   1.000
    C165    C    0.84317   0.10744   0.31666   1.000
    C166    C    0.13013   0.12891   0.65283   1.000
    C167    C    0.18136   0.20098   0.70424   1.000
    C168    C    0.24031   0.23804   0.67000   1.000
    C169    C    0.17145   0.23163   0.78663   1.000
    C170    C    0.28867   0.30424   0.71831   1.000
    C171    C    0.22126   0.29665   0.83455   1.000
    C172    C    0.28069   0.33326   0.80083   1.000
    C173    C    0.33691   0.40144   0.85184   1.000
    C174    C    0.99680   0.04807   0.12229   1.000
    C175    C    0.99949   0.95527   0.21051   1.000
    C176    C    0.50333   0.45269   0.04341   1.000
    C177    C    0.93342   0.10894   0.00000   1.000
    C178    C    0.83438   0.08144   0.91002   1.000
    C179    C    0.56662   0.38828   0.15652   1.000
    C180    C    0.66283   0.41220   0.25603   1.000
    C181    C    0.88074   0.93713   0.98505   1.000
    C182    C    0.84085   0.90862   0.09093   1.000
    C183    C    0.61885   0.56518   0.84764   1.000
    C184    C    0.65906   0.59298   0.74143   1.000
    C185    C    0.43692   0.60874   0.18099   1.000
    C186    C    0.34411   0.59242   0.08042   1.000
    C187    C    0.12130   0.94053   0.31927   1.000
    C188    C    0.16647   0.91594   0.42610   1.000
    C189    C    0.49692   0.45216   0.37751   1.000
    C190    C    0.49911   0.54477   0.28910   1.000
    C191    C    0.00270   0.04741   0.45660   1.000
    C192    C    0.43372   0.39064   0.49073   1.000
    C193    C    0.33671   0.41661   0.58984   1.000
    C194    C    0.06667   0.11184   0.34379   1.000
    C195    C    0.16263   0.08806   0.24406   1.000
    C196    C    0.38046   0.56245   0.51492   1.000
    C197    C    0.34077   0.59106   0.40899   1.000
    C198    C    0.11889   0.93504   0.65248   1.000
    C199    C    0.15908   0.90719   0.75860   1.000
    C200    C    0.93700   0.89127   0.31872   1.000
    C201    C    0.84438   0.90709   0.41934   1.000
    C202    C    0.62156   0.55959   0.18081   1.000
    C203    C    0.66650   0.58436   0.07399   1.000
    C204    C    0.00301   0.95177   0.87774   1.000
    C205    C    0.00000   0.04465   0.78951   1.000
    C206    C    0.50003   0.54726   0.95650   1.000
    C207    C    0.06667   0.89095   0.99215   1.000
    C208    C    0.16561   0.91854   0.08986   1.000
    C209    C    0.43339   0.61139   0.84369   1.000
    C210    C    0.33727   0.58758   0.74410   1.000
    C211    C    0.11919   0.06295   0.01525   1.000
    C212    C    0.15918   0.09092   0.90909   1.000
    C213    C    0.38167   0.43457   0.15049   1.000
    C214    C    0.34106   0.40795   0.25732   1.000
    C215    C    0.56424   0.39124   0.81918   1.000
    C216    C    0.65900   0.40800   0.91852   1.000
    C217    C    0.88002   0.05947   0.68003   1.000
    C218    C    0.83494   0.08375   0.57303   1.000
    C219    C    0.50270   0.54794   0.62231   1.000
    C220    C    0.50147   0.45522   0.71060   1.000
    C221    C    0.00000   0.95286   0.54349   1.000
    C222    C    0.56631   0.60937   0.50932   1.000
    C223    C    0.66339   0.58315   0.41020   1.000
    C224    C    0.93335   0.88834   0.65590   1.000
    C225    C    0.83746   0.91201   0.75574   1.000
    C226    C    0.61937   0.43733   0.48467   1.000
    C227    C    0.65926   0.40911   0.59070   1.000
    C228    C    0.88156   0.06508   0.34840   1.000
    C229    C    0.84095   0.09206   0.24181   1.000
    C230    C    0.06401   0.10898   0.68122   1.000
    C231    C    0.15843   0.09261   0.58165   1.000
    C232    C    0.38021   0.44017   0.81955   1.000
    C233    C    0.33672   0.41500   0.92650   1.000
    O234    O    0.89779   0.11497   0.99040   1.000
    O235    O    0.22885   0.20245   0.01827   1.000
    O236    O    0.27194   0.26149   0.02532   1.000
    O237    O    0.24932   0.21781   0.96957   1.000
    O238    O    0.45354   0.47680   0.02319   1.000
    O239    O    0.37393   0.54667   0.04169   1.000
    O240    O    0.37024   0.45796   0.96473   1.000
    O241    O    0.76328   0.19265   0.01979   1.000
    O242    O    0.69562   0.22902   0.03091   1.000
    O243    O    0.71261   0.17923   0.97671   1.000
    O244    O    0.13865   0.08405   0.99953   1.000
    O245    O    0.84140   0.90164   0.05360   1.000
    O246    O    0.81731   0.85815   0.99049   1.000
    O247    O    0.86135   0.91589   0.00066   1.000
    O248    O    0.15176   0.89873   0.05446   1.000
    O249    O    0.16701   0.84609   0.99293   1.000
    O250    O    0.10229   0.88493   0.00561   1.000
    O251    O    0.30971   0.31549   0.03626   1.000
    O252    O    0.50338   0.42322   0.03547   1.000
    O253    O    0.81702   0.21145   0.07143   1.000
    O254    O    0.83306   0.15382   0.00698   1.000
    O255    O    0.20878   0.18890   0.07609   1.000
    O256    O    0.18282   0.14168   0.00944   1.000
    O257    O    0.63699   0.26407   0.04529   1.000
    O258    O    0.29468   0.30716   0.09024   1.000
    O259    O    0.28738   0.82061   0.02334   1.000
    O260    O    0.68169   0.28415   0.09372   1.000
    O261    O    0.75087   0.78147   0.02979   1.000
    O262    O    0.66587   0.59131   0.11134   1.000
    O263    O    0.63313   0.54164   0.03546   1.000
    O264    O    0.35763   0.61049   0.11619   1.000
    O265    O    0.13094   0.96056   0.12807   1.000
    O266    O    0.87076   0.95431   0.12866   1.000
    O267    O    0.78352   0.69184   0.13423   1.000
    O268    O    0.25671   0.72573   0.13760   1.000
    O269    O    0.86175   0.23160   0.11984   1.000
    O270    O    0.80308   0.26657   0.13424   1.000
    O271    O    0.19403   0.18040   0.13004   1.000
    O272    O    0.23190   0.23434   0.14101   1.000
    O273    O    0.99564   0.07745   0.12967   1.000
    O274    O    0.99840   0.02401   0.11115   1.000
    O275    O    0.27471   0.29356   0.14811   1.000
    O276    O    0.31949   0.35522   0.15687   1.000
    O277    O    0.73540   0.30291   0.14541   1.000
    O278    O    0.66559   0.34175   0.15821   1.000
    O279    O    0.64340   0.57892   0.16475   1.000
    O280    O    0.69307   0.63254   0.17432   1.000
    O281    O    0.44118   0.46618   0.15831   1.000
    O282    O    0.36250   0.41349   0.16646   1.000
    O283    O    0.40404   0.61865   0.16647   1.000
    O284    O    0.34526   0.66446   0.17759   1.000
    O285    O    0.53365   0.44304   0.16133   1.000
    O286    O    0.60154   0.38142   0.17045   1.000
    O287    O    0.78610   0.31633   0.18848   1.000
    O288    O    0.25488   0.27774   0.19679   1.000
    O289    O    0.56112   0.52869   0.17347   1.000
    O290    O    0.46880   0.55327   0.17356   1.000
    O291    O    0.75053   0.68520   0.18308   1.000
    O292    O    0.80496   0.73614   0.19018   1.000
    O293    O    0.12944   0.04532   0.20516   1.000
    O294    O    0.95008   0.97764   0.18845   1.000
    O295    O    0.87081   0.04603   0.20410   1.000
    O296    O    0.28988   0.71897   0.18640   1.000
    O297    O    0.23632   0.77079   0.19356   1.000
    O298    O    0.34220   0.40017   0.21988   1.000
    O299    O    0.64964   0.39338   0.22021   1.000
    O300    O    0.85264   0.78308   0.20106   1.000
    O301    O    0.19001   0.81900   0.20454   1.000
    O302    O    0.99930   0.92594   0.20361   1.000
    O303    O    0.71676   0.68142   0.24119   1.000
    O304    O    0.32428   0.71557   0.24441   1.000
    O305    O    0.82480   0.78403   0.25533   1.000
    O306    O    0.21637   0.81852   0.25877   1.000
    O307    O    0.84206   0.09975   0.27924   1.000
    O308    O    0.14954   0.10677   0.27993   1.000
    O309    O    0.62948   0.45497   0.29480   1.000
    O310    O    0.37081   0.45376   0.29522   1.000
    O311    O    0.75506   0.22266   0.30275   1.000
    O312    O    0.28545   0.18395   0.31069   1.000
    O313    O    0.69036   0.68113   0.29550   1.000
    O314    O    0.73674   0.72918   0.30635   1.000
    O315    O    0.35207   0.71634   0.29862   1.000
    O316    O    0.30445   0.76343   0.30961   1.000
    O317    O    0.49878   0.57411   0.29605   1.000
    O318    O    0.44984   0.52217   0.31111   1.000
    O319    O    0.79034   0.78084   0.31339   1.000
    O320    O    0.84565   0.83525   0.32214   1.000
    O321    O    0.25009   0.81455   0.31681   1.000
    O322    O    0.19275   0.86744   0.32565   1.000
    O323    O    0.10156   0.11867   0.32980   1.000
    O324    O    0.16572   0.15813   0.34194   1.000
    O325    O    0.86236   0.08626   0.33253   1.000
    O326    O    0.81930   0.14462   0.34232   1.000
    O327    O    0.96880   0.94680   0.32621   1.000
    O328    O    0.90422   0.88122   0.33324   1.000
    O329    O    0.06095   0.97143   0.32648   1.000
    O330    O    0.14316   0.92119   0.33528   1.000
    O331    O    0.75713   0.77428   0.36224   1.000
    O332    O    0.44874   0.47586   0.35531   1.000
    O333    O    0.37067   0.54531   0.37105   1.000
    O334    O    0.62975   0.54045   0.37189   1.000
    O335    O    0.28305   0.80773   0.36561   1.000
    O336    O    0.03363   0.05708   0.33874   1.000
    O337    O    0.94108   0.03370   0.34105   1.000
    O338    O    0.77465   0.20648   0.35129   1.000
    O339    O    0.73204   0.26594   0.35859   1.000
    O340    O    0.23539   0.19695   0.35434   1.000
    O341    O    0.30295   0.23332   0.36497   1.000
    O342    O    0.85791   0.88913   0.38355   1.000
    O343    O    0.16574   0.90890   0.38870   1.000
    O344    O    0.69435   0.32009   0.36976   1.000
    O345    O    0.49594   0.42280   0.37027   1.000
    O346    O    0.79430   0.19246   0.40900   1.000
    O347    O    0.18241   0.21520   0.40668   1.000
    O348    O    0.36153   0.26830   0.37889   1.000
    O349    O    0.70884   0.31123   0.42358   1.000
    O350    O    0.31751   0.28797   0.42791   1.000
    O351    O    0.34127   0.59804   0.44632   1.000
    O352    O    0.65004   0.60257   0.44588   1.000
    O353    O    0.87399   0.95288   0.45815   1.000
    O354    O    0.13304   0.95878   0.46464   1.000
    O355    O    0.25115   0.71867   0.47027   1.000
    O356    O    0.13841   0.23480   0.45569   1.000
    O357    O    0.19699   0.26983   0.46963   1.000
    O358    O    0.78556   0.68068   0.47601   1.000
    O359    O    0.80903   0.18373   0.46283   1.000
    O360    O    0.77146   0.23795   0.47399   1.000
    O361    O    0.00135   0.07689   0.46452   1.000
    O362    O    0.95315   0.02304   0.47678   1.000
    O363    O    0.72861   0.29726   0.48127   1.000
    O364    O    0.68283   0.35834   0.49032   1.000
    O365    O    0.26452   0.30624   0.48024   1.000
    O366    O    0.33415   0.34518   0.49249   1.000
    O367    O    0.60151   0.61568   0.49544   1.000
    O368    O    0.66594   0.65474   0.50753   1.000
    O369    O    0.36112   0.58373   0.49928   1.000
    O370    O    0.31717   0.64160   0.50946   1.000
    O371    O    0.55967   0.46868   0.49230   1.000
    O372    O    0.63878   0.41614   0.50036   1.000
    O373    O    0.46685   0.44533   0.49533   1.000
    O374    O    0.39855   0.38428   0.50461   1.000
    O375    O    0.21451   0.31921   0.52392   1.000
    O376    O    0.95180   0.97576   0.52022   1.000
    O377    O    0.86927   0.04121   0.53499   1.000
    O378    O    0.74881   0.28152   0.52983   1.000
    O379    O    0.53314   0.55469   0.50462   1.000
    O380    O    0.44021   0.53124   0.50743   1.000
    O381    O    0.27141   0.70275   0.51871   1.000
    O382    O    0.22857   0.76213   0.52621   1.000
    O383    O    0.12903   0.04711   0.54241   1.000
    O384    O    0.73557   0.69368   0.51972   1.000
    O385    O    0.80309   0.73012   0.53025   1.000
    O386    O    0.65873   0.40202   0.55338   1.000
    O387    O    0.35005   0.39726   0.55417   1.000
    O388    O    0.19101   0.81639   0.53755   1.000
    O389    O    0.00020   0.92337   0.53543   1.000
    O390    O    0.68261   0.71199   0.57208   1.000
    O391    O    0.86164   0.76521   0.54411   1.000
    O392    O    0.29126   0.68858   0.57627   1.000
    O393    O    0.20581   0.80747   0.59128   1.000
    O394    O    0.81767   0.78482   0.59316   1.000
    O395    O    0.83548   0.09079   0.61042   1.000
    O396    O    0.14428   0.11076   0.61724   1.000
    O397    O    0.37034   0.45933   0.62816   1.000
    O398    O    0.62939   0.45496   0.62853   1.000
    O399    O    0.71737   0.19160   0.63357   1.000
    O400    O    0.24397   0.22614   0.63825   1.000
    O401    O    0.63862   0.73169   0.62112   1.000
    O402    O    0.69719   0.76670   0.63497   1.000
    O403    O    0.30584   0.67954   0.62998   1.000
    O404    O    0.26816   0.73373   0.64134   1.000
    O405    O    0.50364   0.57731   0.62958   1.000
    O406    O    0.55111   0.52437   0.64434   1.000
    O407    O    0.76473   0.80309   0.64552   1.000
    O408    O    0.83437   0.84195   0.65786   1.000
    O409    O    0.22554   0.79324   0.64885   1.000
    O410    O    0.18089   0.85514   0.65809   1.000
    O411    O    0.85802   0.07865   0.66392   1.000
    O412    O    0.80809   0.13207   0.67342   1.000
    O413    O    0.05937   0.96638   0.65939   1.000
    O414    O    0.13797   0.91365   0.66818   1.000
    O415    O    0.09707   0.11894   0.66703   1.000
    O416    O    0.15574   0.16495   0.67853   1.000
    O417    O    0.96660   0.94303   0.66111   1.000
    O418    O    0.89849   0.88148   0.66994   1.000
    O419    O    0.71470   0.81612   0.68919   1.000
    O420    O    0.24521   0.77690   0.69727   1.000
    O421    O    0.75047   0.18478   0.68229   1.000
    O422    O    0.69613   0.23596   0.68961   1.000
    O423    O    0.93993   0.02860   0.67317   1.000
    O424    O    0.03193   0.05335   0.67376   1.000
    O425    O    0.55049   0.47801   0.68848   1.000
    O426    O    0.62928   0.54689   0.70389   1.000
    O427    O    0.37062   0.54481   0.70530   1.000
    O428    O    0.21084   0.21951   0.68712   1.000
    O429    O    0.26449   0.27114   0.69415   1.000
    O430    O    0.15807   0.89973   0.72125   1.000
    O431    O    0.85055   0.89332   0.71986   1.000
    O432    O    0.64858   0.28313   0.70069   1.000
    O433    O    0.31093   0.31911   0.70522   1.000
    O434    O    0.50192   0.42587   0.70360   1.000
    O435    O    0.78428   0.18078   0.74028   1.000
    O436    O    0.17640   0.21631   0.74544   1.000
    O437    O    0.67655   0.28394   0.75484   1.000
    O438    O    0.28468   0.31875   0.75957   1.000
    O439    O    0.65803   0.60043   0.77882   1.000
    O440    O    0.35044   0.60638   0.77994   1.000
    O441    O    0.87063   0.95472   0.79469   1.000
    O442    O    0.12921   0.95330   0.79614   1.000
    O443    O    0.74553   0.72286   0.80273   1.000
    O444    O    0.81065   0.18023   0.79450   1.000
    O445    O    0.76446   0.22854   0.80554   1.000
    O446    O    0.21409   0.68350   0.81154   1.000
    O447    O    0.14852   0.21733   0.79931   1.000
    O448    O    0.19635   0.26414   0.81059   1.000
    O449    O    0.00000   0.07400   0.79626   1.000
    O450    O    0.95189   0.02104   0.81158   1.000
    O451    O    0.71108   0.28052   0.81279   1.000
    O452    O    0.65610   0.33534   0.82175   1.000
    O453    O    0.25097   0.31496   0.81769   1.000
    O454    O    0.30880   0.36735   0.82634   1.000
    O455    O    0.39850   0.61829   0.82973   1.000
    O456    O    0.33449   0.65802   0.84192   1.000
    O457    O    0.63793   0.58653   0.83193   1.000
    O458    O    0.68083   0.64497   0.84199   1.000
    O459    O    0.53207   0.44671   0.82646   1.000
    O460    O    0.59739   0.38135   0.83334   1.000
    O461    O    0.44006   0.47117   0.82664   1.000
    O462    O    0.35856   0.42080   0.83569   1.000
    O463    O    0.74428   0.27367   0.86152   1.000
    O464    O    0.86908   0.03943   0.87183   1.000
    O465    O    0.05117   0.97559   0.85571   1.000
    O466    O    0.12926   0.04516   0.87138   1.000
    O467    O    0.46665   0.55679   0.83871   1.000
    O468    O    0.55938   0.53368   0.84069   1.000
    O469    O    0.21794   0.30834   0.86654   1.000
    O470    O    0.72563   0.70670   0.85119   1.000
    O471    O    0.76844   0.76602   0.85865   1.000
    O472    O    0.26472   0.69690   0.85466   1.000
    O473    O    0.19707   0.73328   0.86572   1.000
    O474    O    0.64478   0.38973   0.88301   1.000
    O475    O    0.33681   0.40822   0.88917   1.000
    O476    O    0.80629   0.82003   0.86996   1.000
    O477    O    0.00413   0.92239   0.87037   1.000
    O478    O    0.70562   0.69268   0.90881   1.000
    O479    O    0.31837   0.71564   0.90640   1.000
    O480    O    0.13843   0.76829   0.88004   1.000
    O481    O    0.79148   0.81116   0.92371   1.000
    O482    O    0.18310   0.78843   0.92849   1.000
    O483    O    0.15864   0.09804   0.94645   1.000
    O484    O    0.84827   0.10122   0.94541   1.000
    O485    O    0.62938   0.45346   0.95772   1.000
    O486    O    0.36300   0.73568   0.95489   1.000
    O487    O    0.30440   0.77080   0.96918   1.000
    O488    O    0.69058   0.68396   0.96259   1.000
    O489    O    0.72831   0.73804   0.97388   1.000
    O490    O    0.49986   0.57675   0.96456   1.000
    O491    O    0.54989   0.52309   0.97671   1.000
    O492    O    0.77136   0.79720   0.98131   1.000
    O493    O    0.23677   0.80721   0.98022   1.000
    O494    O    0.04653   0.02533   0.14428   1.000
    O495    O    0.94873   0.02403   0.14434   1.000
    O496    O    0.04788   0.97893   0.18839   1.000
    O497    O    0.00005   0.97880   0.27210   1.000
    O498    O    0.50201   0.47524   0.10477   1.000
    O499    O    0.55154   0.47581   0.02017   1.000
    O500    O    0.54652   0.47496   0.35555   1.000
    O501    O    0.49845   0.47609   0.43872   1.000
    O502    O    0.49989   0.52128   0.22762   1.000
    O503    O    0.54761   0.52126   0.31134   1.000
    O504    O    0.00165   0.02487   0.39515   1.000
    O505    O    0.05116   0.02451   0.47989   1.000
    O506    O    0.95340   0.97460   0.85569   1.000
    O507    O    0.04967   0.02203   0.81160   1.000
    O508    O    0.99992   0.02119   0.72791   1.000
    O509    O    0.45189   0.52409   0.97973   1.000
    O510    O    0.49997   0.52472   0.89512   1.000
    O511    O    0.45333   0.52499   0.64440   1.000
    O512    O    0.50133   0.52398   0.56112   1.000
    O513    O    0.50069   0.47870   0.77217   1.000
    O514    O    0.45272   0.47863   0.68855   1.000
    O515    O    0.99992   0.97529   0.60490   1.000
    O516    O    0.04981   0.97723   0.52333   1.000
loop_
    _geom_bond_atom_site_label_1
    _geom_bond_atom_site_label_2
    _geom_bond_distance
    _geom_bond_site_symmetry_2
    _ccdc_geom_bond_type
    C177   O234      0.60411  1_554   S
    C78    O234      0.60411      .   S
    C137   O235      0.70163      .   S
    C135   O235      0.70163      .   S
    C137   O236      0.69494      .   S
    C139   O236      0.69494      .   S
    C137   O237      0.54364  1_554   S
    C56    O237      0.54364      .   S
    C3     O238      1.02127      .   S
    C176   O238      1.02127      .   S
    C3     O239      0.96959      .   S
    C186   O239      0.96959      .   S
    C3     O240      0.96916  1_554   S
    C233   O240      0.96916      .   S
    C81    O241      0.70224      .   S
    C79    O241      0.70224      .   S
    C81    O242      0.69572      .   S
    C83    O242      0.69572      .   S
    C81    O243      0.54414  1_554   S
    C22    O243      0.54414      .   S
    C211   O244      0.63088  1_554   S
    C134   O244      0.63088      .   S
    C86    O245      0.64642      .   S
    C182   O245      0.64642      .   S
    C86    O246      0.74733  1_554   S
    C87    O246      0.74733      .   S
    C86    O247      0.63088      .   S
    C181   O247      0.63088  1_556   S
    C126   O248      0.64563      .   S
    C208   O248      0.64563      .   S
    C126   O249      0.74971  1_554   S
    C127   O249      0.74971      .   S
    C126   O250      0.63249      .   S
    C207   O250      0.63249  1_556   S
    C58    O251      0.54435      .   S
    C139   O251      0.54435      .   S
    C20    O252      0.48752      .   S
    C176   O252      0.48752      .   S
    C79    O253      0.70109      .   S
    C80    O253      0.70109      .   S
    C79    O254      0.74972      .   S
    C78    O254      0.74972  1_556   S
    C135   O255      0.70097      .   S
    C136   O255      0.70097      .   S
    C135   O256      0.74737      .   S
    C134   O256      0.74737  1_556   S
    C24    O257      0.54439      .   S
    C83    O257      0.54439      .   S
    C139   O258      0.70132      .   S
    C140   O258      0.70132      .   S
    C52    O259      0.54418      .   S
    C129   O259      0.54418  1_556   S
    C83    O260      0.70156      .   S
    C84    O260      0.70156      .   S
    C26    O261      0.54370      .   S
    C89    O261      0.54370  1_556   S
    C203   O262      0.64704      .   S
    C125   O262      0.64704      .   S
    C203   O263      0.96821      .   S
    C11    O263      0.96821  1_556   S
    C186   O264      0.64512      .   S
    C94    O264      0.64512      .   S
    C208   O265      0.96971      .   S
    C0     O265      0.96971  1_545   S
    C182   O266      0.96295      .   S
    C1     O266      0.96295  1_545   S
    C47    O267      0.54414      .   S
    C123   O267      0.54414      .   S
    C29    O268      0.54440      .   S
    C96    O268      0.54440      .   S
    C80    O269      0.54455      .   S
    C21    O269      0.54455      .   S
    C80    O270      0.69589      .   S
    C82    O270      0.69589      .   S
    C136   O271      0.54455      .   S
    C55    O271      0.54455      .   S
    C136   O272      0.69544      .   S
    C138   O272      0.69544      .   S
    C174   O273      0.48744      .   S
    C18    O273      0.48744      .   S
    C174   O274      0.39832      .   S
    C16    O274      0.39832  1_465   S
    C140   O275      0.70196      .   S
    C138   O275      0.70196      .   S
    C140   O276      0.74751      .   S
    C141   O276      0.74751      .   S
    C84    O277      0.70216      .   S
    C82    O277      0.70216      .   S
    C84    O278      0.75001      .   S
    C85    O278      0.75001      .   S
    C125   O279      0.63048      .   S
    C202   O279      0.63048      .   S
    C125   O280      0.74979      .   S
    C124   O280      0.74979      .   S
    C213   O281      1.06575      .   S
    C2     O281      1.06575      .   S
    C213   O282      0.63158      .   S
    C141   O282      0.63158      .   S
    C94    O283      0.63231      .   S
    C185   O283      0.63231      .   S
    C94    O284      0.74942      .   S
    C95    O284      0.74942      .   S
    C179   O285      1.07382      .   S
    C2     O285      1.07382      .   S
    C179   O286      0.63215      .   S
    C85    O286      0.63215      .   S
    C82    O287      0.54432      .   S
    C23    O287      0.54432      .   S
    C138   O288      0.54418      .   S
    C57    O288      0.54418      .   S
    C2     O289      1.07314      .   S
    C202   O289      1.07314      .   S
    C2     O290      1.06523      .   S
    C185   O290      1.06523      .   S
    C123   O291      0.70166      .   S
    C124   O291      0.70166      .   S
    C123   O292      0.69563      .   S
    C121   O292      0.69563      .   S
    C0     O293      0.96963      .   S
    C195   O293      0.96963      .   S
    C1     O294      1.01776  1_545   S
    C175   O294      1.01776      .   S
    C1     O295      0.96517      .   S
    C229   O295      0.96517      .   S
    C96    O296      0.70192      .   S
    C95    O296      0.70192      .   S
    C96    O297      0.69577      .   S
    C98    O297      0.69577      .   S
    C141   O298      0.64586      .   S
    C214   O298      0.64586      .   S
    C85    O299      0.64583      .   S
    C180   O299      0.64583      .   S
    C45    O300      0.54425      .   S
    C121   O300      0.54425      .   S
    C31    O301      0.54411      .   S
    C98    O301      0.54411      .   S
    C19    O302      0.48752      .   S
    C175   O302      0.48752      .   S
    C124   O303      0.70170      .   S
    C122   O303      0.70170      .   S
    C95    O304      0.70161      .   S
    C97    O304      0.70161      .   S
    C121   O305      0.70165      .   S
    C119   O305      0.70165      .   S
    C98    O306      0.70144      .   S
    C100   O306      0.70144      .   S
    C229   O307      0.64578      .   S
    C165   O307      0.64578      .   S
    C195   O308      0.64574      .   S
    C109   O308      0.64574      .   S
    C180   O309      0.96964      .   S
    C4     O309      0.96964      .   S
    C214   O310      0.96415      .   S
    C5     O310      0.96415      .   S
    C72    O311      0.54424      .   S
    C162   O311      0.54424      .   S
    C38    O312      0.54432      .   S
    C106   O312      0.54432      .   S
    C122   O313      0.54415      .   S
    C46    O313      0.54415      .   S
    C122   O314      0.69573      .   S
    C120   O314      0.69573      .   S
    C97    O315      0.54425      .   S
    C30    O315      0.54425      .   S
    C97    O316      0.69560      .   S
    C99    O316      0.69560      .   S
    C190   O317      0.48753      .   S
    C34    O317      0.48753      .   S
    C190   O318      1.01846      .   S
    C5     O318      1.01846      .   S
    C119   O319      0.70192      .   S
    C120   O319      0.70192      .   S
    C119   O320      0.74938      .   S
    C118   O320      0.74938      .   S
    C100   O321      0.70178      .   S
    C99    O321      0.70178      .   S
    C100   O322      0.74965      .   S
    C101   O322      0.74965      .   S
    C109   O323      0.63222      .   S
    C194   O323      0.63222      .   S
    C109   O324      0.75005      .   S
    C108   O324      0.75005      .   S
    C165   O325      0.63151      .   S
    C228   O325      0.63151      .   S
    C165   O326      0.74746      .   S
    C164   O326      0.74746      .   S
    C200   O327      1.06613      .   S
    C6     O327      1.06613  1_445   S
    C200   O328      0.63229      .   S
    C118   O328      0.63229      .   S
    C187   O329      1.07111      .   S
    C6     O329      1.07111  1_545   S
    C187   O330      0.62995      .   S
    C101   O330      0.62995      .   S
    C120   O331      0.54428      .   S
    C44    O331      0.54428      .   S
    C5     O332      1.01798      .   S
    C189   O332      1.01798      .   S
    C5     O333      0.96420      .   S
    C197   O333      0.96420      .   S
    C4     O334      0.96843      .   S
    C223   O334      0.96843      .   S
    C99    O335      0.54412      .   S
    C32    O335      0.54412      .   S
    C6     O336      1.07409      .   S
    C194   O336      1.07409      .   S
    C6     O337      1.06371  1_455   S
    C228   O337      1.06371      .   S
    C162   O338      0.70195      .   S
    C164   O338      0.70195      .   S
    C162   O339      0.69529      .   S
    C160   O339      0.69529      .   S
    C106   O340      0.70217      .   S
    C108   O340      0.70217      .   S
    C106   O341      0.69563      .   S
    C104   O341      0.69563      .   S
    C118   O342      0.64511      .   S
    C201   O342      0.64511      .   S
    C101   O343      0.64749      .   S
    C188   O343      0.64749      .   S
    C70    O344      0.54421      .   S
    C160   O344      0.54421      .   S
    C33    O345      0.48747      .   S
    C189   O345      0.48747      .   S
    C164   O346      0.70129      .   S
    C163   O346      0.70129      .   S
    C108   O347      0.70155      .   S
    C107   O347      0.70155      .   S
    C36    O348      0.54436      .   S
    C104   O348      0.54436      .   S
    C160   O349      0.70141      .   S
    C159   O349      0.70141      .   S
    C104   O350      0.70148      .   S
    C103   O350      0.70148      .   S
    C197   O351      0.64643      .   S
    C110   O351      0.64643      .   S
    C223   O352      0.64582      .   S
    C150   O352      0.64582      .   S
    C201   O353      0.96969      .   S
    C7     O353      0.96969      .   S
    C188   O354      0.96887      .   S
    C15    O354      0.96887  1_545   S
    C41    O355      0.54393      .   S
    C113   O355      0.54393      .   S
    C107   O356      0.54430      .   S
    C39    O356      0.54430      .   S
    C107   O357      0.69578      .   S
    C105   O357      0.69578      .   S
    C67    O358      0.54434      .   S
    C153   O358      0.54434      .   S
    C163   O359      0.54430      .   S
    C73    O359      0.54430      .   S
    C163   O360      0.69494      .   S
    C161   O360      0.69494      .   S
    C191   O361      0.48795      .   S
    C35    O361      0.48795      .   S
    C191   O362      1.02124  1_455   S
    C7     O362      1.02124  1_565   S
    C159   O363      0.70160      .   S
    C161   O363      0.70160      .   S
    C159   O364      0.74745      .   S
    C158   O364      0.74745      .   S
    C103   O365      0.70219      .   S
    C105   O365      0.70219      .   S
    C103   O366      0.74984      .   S
    C102   O366      0.74984      .   S
    C150   O367      0.63226      .   S
    C222   O367      0.63226      .   S
    C150   O368      0.74986      .   S
    C151   O368      0.74986      .   S
    C110   O369      0.63104      .   S
    C196   O369      0.63104      .   S
    C110   O370      0.74742      .   S
    C111   O370      0.74742      .   S
    C226   O371      1.06543      .   S
    C17    O371      1.06543      .   S
    C226   O372      0.63117      .   S
    C158   O372      0.63117      .   S
    C192   O373      1.07582      .   S
    C17    O373      1.07582      .   S
    C192   O374      0.63223      .   S
    C102   O374      0.63223      .   S
    C105   O375      0.54434      .   S
    C37    O375      0.54434      .   S
    C7     O376      1.02134      .   S
    C221   O376      1.02134  1_455   S
    C7     O377      0.97000  1_565   S
    C218   O377      0.97000      .   S
    C161   O378      0.54394      .   S
    C71    O378      0.54394      .   S
    C17    O379      1.07547      .   S
    C222   O379      1.07547      .   S
    C17    O380      1.06530      .   S
    C196   O380      1.06530      .   S
    C113   O381      0.70157      .   S
    C111   O381      0.70157      .   S
    C113   O382      0.69497      .   S
    C115   O382      0.69497      .   S
    C15    O383      0.96858      .   S
    C231   O383      0.96858      .   S
    C153   O384      0.70222      .   S
    C151   O384      0.70222      .   S
    C153   O385      0.69582      .   S
    C155   O385      0.69582      .   S
    C158   O386      0.64586      .   S
    C227   O386      0.64586      .   S
    C102   O387      0.64553      .   S
    C193   O387      0.64553      .   S
    C43    O388      0.54434      .   S
    C115   O388      0.54434      .   S
    C65    O389      0.48751      .   S
    C221   O389      0.48751      .   S
    C151   O390      0.70149      .   S
    C152   O390      0.70149      .   S
    C69    O391      0.54440      .   S
    C155   O391      0.54440      .   S
    C111   O392      0.70140      .   S
    C112   O392      0.70140      .   S
    C115   O393      0.70130      .   S
    C116   O393      0.70130      .   S
    C155   O394      0.70150      .   S
    C156   O394      0.70150      .   S
    C218   O395      0.64717      .   S
    C149   O395      0.64717      .   S
    C231   O396      0.64567      .   S
    C166   O396      0.64567      .   S
    C193   O397      0.96864      .   S
    C12    O397      0.96864      .   S
    C227   O398      0.96430      .   S
    C13    O398      0.96430      .   S
    C62    O399      0.54415      .   S
    C147   O399      0.54415      .   S
    C74    O400      0.54049      .   S
    C168   O400      0.54049      .   S
    C152   O401      0.54430      .   S
    C66    O401      0.54430      .   S
    C152   O402      0.69563      .   S
    C154   O402      0.69563      .   S
    C112   O403      0.54412      .   S
    C40    O403      0.54412      .   S
    C112   O404      0.69523      .   S
    C114   O404      0.69523      .   S
    C219   O405      0.48745      .   S
    C63    O405      0.48745      .   S
    C219   O406      1.01743      .   S
    C13    O406      1.01743      .   S
    C156   O407      0.70221      .   S
    C154   O407      0.70221      .   S
    C156   O408      0.75009      .   S
    C157   O408      0.75009      .   S
    C116   O409      0.70188      .   S
    C114   O409      0.70188      .   S
    C116   O410      0.74740      .   S
    C117   O410      0.74740      .   S
    C149   O411      0.63038      .   S
    C217   O411      0.63038      .   S
    C149   O412      0.74960      .   S
    C148   O412      0.74960      .   S
    C198   O413      1.06398      .   S
    C14    O413      1.06398  1_655   S
    C198   O414      0.63150      .   S
    C117   O414      0.63150      .   S
    C166   O415      0.63209      .   S
    C230   O415      0.63209      .   S
    C166   O416      0.74965      .   S
    C167   O416      0.74965      .   S
    C224   O417      1.07389      .   S
    C14    O417      1.07389      .   S
    C224   O418      0.63245      .   S
    C157   O418      0.63245      .   S
    C154   O419      0.54424      .   S
    C68    O419      0.54424      .   S
    C114   O420      0.54422      .   S
    C42    O420      0.54422      .   S
    C147   O421      0.70159      .   S
    C148   O421      0.70159      .   S
    C147   O422      0.69573      .   S
    C145   O422      0.69573      .   S
    C14    O423      1.06542  1_565   S
    C217   O423      1.06542      .   S
    C14    O424      1.06985  1_665   S
    C230   O424      1.06985      .   S
    C13    O425      1.01850      .   S
    C220   O425      1.01850      .   S
    C13    O426      0.96453      .   S
    C184   O426      0.96453      .   S
    C12    O427      0.96977      .   S
    C210   O427      0.96977      .   S
    C168   O428      0.70476      .   S
    C167   O428      0.70476      .   S
    C168   O429      0.69702      .   S
    C170   O429      0.69702      .   S
    C117   O430      0.64527      .   S
    C199   O430      0.64527      .   S
    C157   O431      0.64582      .   S
    C225   O431      0.64582      .   S
    C60    O432      0.54424      .   S
    C145   O432      0.54424      .   S
    C76    O433      0.54413      .   S
    C170   O433      0.54413      .   S
    C64    O434      0.48755      .   S
    C220   O434      0.48755      .   S
    C148   O435      0.70175      .   S
    C146   O435      0.70175      .   S
    C167   O436      0.70165      .   S
    C169   O436      0.70165      .   S
    C145   O437      0.70170      .   S
    C143   O437      0.70170      .   S
    C170   O438      0.70173      .   S
    C172   O438      0.70173      .   S
    C184   O439      0.64592      .   S
    C93    O439      0.64592      .   S
    C210   O440      0.64593      .   S
    C133   O440      0.64593      .   S
    C225   O441      0.96958      .   S
    C8     O441      0.96958      .   S
    C199   O442      0.96481      .   S
    C9     O442      0.96481      .   S
    C27    O443      0.54413      .   S
    C90    O443      0.54413      .   S
    C146   O444      0.54410      .   S
    C61    O444      0.54410      .   S
    C146   O445      0.69568      .   S
    C144   O445      0.69568      .   S
    C53    O446      0.54435      .   S
    C130   O446      0.54435      .   S
    C169   O447      0.53983      .   S
    C75    O447      0.53983      .   S
    C169   O448      0.69590      .   S
    C171   O448      0.69590      .   S
    C205   O449      0.48820      .   S
    C49    O449      0.48820      .   S
    C205   O450      1.01548  1_455   S
    C8     O450      1.01548  1_565   S
    C143   O451      0.70190      .   S
    C144   O451      0.70190      .   S
    C143   O452      0.74949      .   S
    C142   O452      0.74949      .   S
    C172   O453      0.70170      .   S
    C171   O453      0.70170      .   S
    C172   O454      0.74970      .   S
    C173   O454      0.74970      .   S
    C133   O455      0.63213      .   S
    C209   O455      0.63213      .   S
    C133   O456      0.75000      .   S
    C132   O456      0.75000      .   S
    C93    O457      0.63141      .   S
    C183   O457      0.63141      .   S
    C93    O458      0.74749      .   S
    C92    O458      0.74749      .   S
    C215   O459      1.06789      .   S
    C10    O459      1.06789      .   S
    C215   O460      0.63214      .   S
    C142   O460      0.63214      .   S
    C232   O461      1.06631      .   S
    C10    O461      1.06631      .   S
    C232   O462      0.63044      .   S
    C173   O462      0.63044      .   S
    C144   O463      0.54428      .   S
    C59    O463      0.54428      .   S
    C8     O464      0.96971  1_565   S
    C178   O464      0.96971      .   S
    C9     O465      1.01789      .   S
    C204   O465      1.01789      .   S
    C9     O466      0.96351  1_565   S
    C212   O466      0.96351      .   S
    C10    O467      1.07289      .   S
    C209   O467      1.07289      .   S
    C10    O468      1.06548      .   S
    C183   O468      1.06548      .   S
    C171   O469      0.54411      .   S
    C77    O469      0.54411      .   S
    C90    O470      0.70188      .   S
    C92    O470      0.70188      .   S
    C90    O471      0.69525      .   S
    C88    O471      0.69525      .   S
    C130   O472      0.70213      .   S
    C132   O472      0.70213      .   S
    C130   O473      0.69569      .   S
    C128   O473      0.69569      .   S
    C142   O474      0.64541      .   S
    C216   O474      0.64541      .   S
    C173   O475      0.64714      .   S
    C233   O475      0.64714      .   S
    C25    O476      0.54426      .   S
    C88    O476      0.54426      .   S
    C48    O477      0.48744      .   S
    C204   O477      0.48744      .   S
    C92    O478      0.70141      .   S
    C91    O478      0.70141      .   S
    C132   O479      0.70153      .   S
    C131   O479      0.70153      .   S
    C51    O480      0.54433      .   S
    C128   O480      0.54433      .   S
    C88    O481      0.70134      .   S
    C87    O481      0.70134      .   S
    C128   O482      0.70146      .   S
    C127   O482      0.70146      .   S
    C212   O483      0.64637      .   S
    C134   O483      0.64637      .   S
    C178   O484      0.64557      .   S
    C78    O484      0.64557      .   S
    C216   O485      0.96883      .   S
    C11    O485      0.96883      .   S
    C131   O486      0.54443      .   S
    C54    O486      0.54443      .   S
    C131   O487      0.69576      .   S
    C129   O487      0.69576      .   S
    C91    O488      0.54432      .   S
    C28    O488      0.54432      .   S
    C91    O489      0.69496      .   S
    C89    O489      0.69496      .   S
    C206   O490      0.48746      .   S
    C50    O490      0.48746      .   S
    C206   O491      1.02261      .   S
    C11    O491      1.02261      .   S
    C87    O492      0.70163      .   S
    C89    O492      0.70163      .   S
    C127   O493      0.70223      .   S
    C129   O493      0.70223      .   S
    C174   O494      1.02448  1_655   S
    C0     O494      1.02448      .   S
    C174   O495      1.01907      .   S
    C1     O495      1.01907      .   S
    C175   O496      1.01965  1_655   S
    C0     O496      1.01965  1_545   S
    C175   O497      1.04265  1_655   S
    C6     O497      1.04265  1_545   S
    C176   O498      1.03912      .   S
    C2     O498      1.03912      .   S
    C176   O499      1.02380      .   S
    C11    O499      1.02380  1_556   S
    C189   O500      1.02372      .   S
    C4     O500      1.02372      .   S
    C189   O501      1.03631      .   S
    C17    O501      1.03631      .   S
    C190   O502      1.04081      .   S
    C2     O502      1.04081      .   S
    C190   O503      1.02027      .   S
    C4     O503      1.02027      .   S
    C191   O504      1.04060      .   S
    C6     O504      1.04060      .   S
    C191   O505      1.02450      .   S
    C15    O505      1.02450      .   S
    C204   O506      1.02444  1_455   S
    C8     O506      1.02444      .   S
    C205   O507      1.02353      .   S
    C9     O507      1.02353  1_565   S
    C205   O508      1.04271  1_455   S
    C14    O508      1.04271  1_565   S
    C206   O509      1.02339      .   S
    C3     O509      1.02339  1_554   S
    C206   O510      1.03927      .   S
    C10    O510      1.03927      .   S
    C219   O511      1.02373      .   S
    C12    O511      1.02373      .   S
    C219   O512      1.03592      .   S
    C17    O512      1.03592      .   S
    C220   O513      1.04226      .   S
    C10    O513      1.04226      .   S
    C220   O514      1.02025      .   S
    C12    O514      1.02025      .   S
    C221   O515      1.03983  1_455   S
    C14    O515      1.03983      .   S
    C221   O516      1.02414      .   S
    C15    O516      1.02414  1_545   S
