# CIF file generated by openbabel 2.4.90, see http://openbabel.sf.net
data_I
_chemical_name_common ''
_cell_length_a 20.472
_cell_length_b 12.631
_cell_length_c 15.386
_cell_angle_alpha 90.011
_cell_angle_beta 90.002
_cell_angle_gamma 90.012
_space_group_name_H-M_alt 'P 1'
_space_group_name_Hall 'P 1'
loop_
    _symmetry_equiv_pos_as_xyz
    x,y,z
loop_
    _atom_site_label
    _atom_site_type_symbol
    _atom_site_fract_x
    _atom_site_fract_y
    _atom_site_fract_z
    _atom_site_occupancy
    H0      H    0.18813   0.75819   0.06706   1.000
    H1      H    0.68814   0.75819   0.06706   1.000
    H2      H    0.32714   0.78239   0.86736   1.000
    H3      H    0.82715   0.78239   0.86736   1.000
    H4      H    0.26009   0.49350   0.89000   1.000
    H5      H    0.76009   0.49351   0.89007   1.000
    H6      H    0.21862   0.47307   0.73064   1.000
    H7      H    0.71862   0.47307   0.73064   1.000
    H8      H    0.36582   0.65263   0.61031   1.000
    H9      H    0.86582   0.65263   0.61031   1.000
    H10     H    0.06188   0.24188   0.56706   1.000
    H11     H    0.56188   0.24188   0.56705   1.000
    H12     H    0.42287   0.21759   0.36736   1.000
    H13     H    0.92288   0.21759   0.36736   1.000
    H14     H    0.48991   0.50649   0.39012   1.000
    H15     H    0.98991   0.50650   0.39013   1.000
    H16     H    0.03132   0.52699   0.23071   1.000
    H17     H    0.53131   0.52698   0.23070   1.000
    H18     H    0.38413   0.34734   0.11035   1.000
    H19     H    0.88413   0.34734   0.11030   1.000
    H20     H    0.31186   0.25822   0.43289   1.000
    H21     H    0.81187   0.25822   0.43290   1.000
    H22     H    0.17284   0.28240   0.63256   1.000
    H23     H    0.67284   0.28240   0.63256   1.000
    H24     H    0.23990   0.99356   0.60983   1.000
    H25     H    0.73990   0.99355   0.60982   1.000
    H26     H    0.28137   0.97309   0.76923   1.000
    H27     H    0.78137   0.97309   0.76923   1.000
    H28     H    0.13418   0.15254   0.88966   1.000
    H29     H    0.63419   0.15254   0.88966   1.000
    H30     H    0.43812   0.74171   0.93280   1.000
    H31     H    0.93812   0.74171   0.93287   1.000
    H32     H    0.07712   0.71761   0.13261   1.000
    H33     H    0.57712   0.71761   0.13260   1.000
    H34     H    0.01010   0.00646   0.10980   1.000
    H35     H    0.51010   0.00646   0.10986   1.000
    H36     H    0.46871   0.02699   0.26928   1.000
    H37     H    0.96870   0.02700   0.26929   1.000
    H38     H    0.11583   0.84735   0.38960   1.000
    H39     H    0.61584   0.84735   0.38961   1.000
    H40     H    0.31187   0.24185   0.93289   1.000
    H41     H    0.81187   0.24185   0.93289   1.000
    H42     H    0.17286   0.21765   0.13259   1.000
    H43     H    0.67286   0.21765   0.13259   1.000
    H44     H    0.23991   0.50653   0.10988   1.000
    H45     H    0.73991   0.50653   0.10988   1.000
    H46     H    0.28138   0.52697   0.26931   1.000
    H47     H    0.78138   0.52698   0.26931   1.000
    H48     H    0.13418   0.34741   0.38964   1.000
    H49     H    0.63419   0.34740   0.38964   1.000
    H50     H    0.43812   0.75816   0.43289   1.000
    H51     H    0.93811   0.75816   0.43290   1.000
    H52     H    0.07713   0.78245   0.63260   1.000
    H53     H    0.57713   0.78245   0.63259   1.000
    H54     H    0.01009   0.49354   0.60983   1.000
    H55     H    0.51009   0.49354   0.60983   1.000
    H56     H    0.46869   0.47305   0.76924   1.000
    H57     H    0.96868   0.47305   0.76925   1.000
    H58     H    0.11588   0.65270   0.88960   1.000
    H59     H    0.61587   0.65270   0.88960   1.000
    H60     H    0.18814   0.74181   0.56706   1.000
    H61     H    0.68814   0.74181   0.56706   1.000
    H62     H    0.32716   0.71764   0.36739   1.000
    H63     H    0.82716   0.71764   0.36739   1.000
    H64     H    0.26010   0.00648   0.39012   1.000
    H65     H    0.76010   0.00648   0.39010   1.000
    H66     H    0.21863   0.02695   0.23072   1.000
    H67     H    0.71863   0.02696   0.23072   1.000
    H68     H    0.36582   0.84750   0.11029   1.000
    H69     H    0.86582   0.84751   0.11029   1.000
    H70     H    0.06188   0.25832   0.06709   1.000
    H71     H    0.56189   0.25832   0.06707   1.000
    H72     H    0.42288   0.28242   0.86735   1.000
    H73     H    0.92288   0.28243   0.86730   1.000
    H74     H    0.48989   0.99357   0.89009   1.000
    H75     H    0.98990   0.99358   0.89010   1.000
    H76     H    0.03130   0.97303   0.73067   1.000
    H77     H    0.53129   0.97304   0.73067   1.000
    H78     H    0.38417   0.15269   0.61034   1.000
    H79     H    0.88418   0.15271   0.61035   1.000
    C80     C    0.22134   0.73729   0.01502   1.000
    C81     C    0.72134   0.73729   0.01502   1.000
    C82     C    0.29196   0.75179   0.91362   1.000
    C83     C    0.79196   0.75179   0.91362   1.000
    C84     C    0.29570   0.55560   0.87475   1.000
    C85     C    0.79570   0.55560   0.87475   1.000
    C86     C    0.36450   0.51108   0.90227   1.000
    C87     C    0.86450   0.51108   0.90227   1.000
    C88     C    0.26071   0.52356   0.71943   1.000
    C89     C    0.76072   0.52356   0.71943   1.000
    C90     C    0.33552   0.61677   0.66009   1.000
    C91     C    0.83552   0.61678   0.66009   1.000
    N92     N    0.52179   0.36135   0.48647   1.000
    N93     N    0.49086   0.19037   0.47192   1.000
    N94     N    0.99086   0.19037   0.47193   1.000
    N95     N    0.45394   0.42703   0.28151   1.000
    C96     C    0.02868   0.26275   0.51502   1.000
    C97     C    0.52868   0.26275   0.51501   1.000
    C98     C    0.45806   0.24820   0.41360   1.000
    C99     C    0.95806   0.24820   0.41363   1.000
    C100    C    0.45430   0.44439   0.37480   1.000
    C101    C    0.95430   0.44439   0.37481   1.000
    C102    C    0.38549   0.48891   0.40234   1.000
    C103    C    0.88549   0.48891   0.40234   1.000
    C104    C    0.48923   0.47645   0.21948   1.000
    C105    C    0.98923   0.47646   0.21949   1.000
    C106    C    0.41444   0.38321   0.16013   1.000
    C107    C    0.91444   0.38322   0.16013   1.000
    C108    C    0.27866   0.23731   0.48494   1.000
    C109    C    0.77867   0.23732   0.48494   1.000
    C110    C    0.20803   0.25181   0.58631   1.000
    C111    C    0.70803   0.25181   0.58631   1.000
    C112    C    0.20431   0.05564   0.62510   1.000
    C113    C    0.70431   0.05564   0.62516   1.000
    C114    C    0.13549   0.01110   0.59765   1.000
    C115    C    0.63549   0.01110   0.59765   1.000
    C116    C    0.23928   0.02356   0.78047   1.000
    C117    C    0.73928   0.02356   0.78047   1.000
    C118    C    0.16449   0.11672   0.83986   1.000
    C119    C    0.66450   0.11672   0.83986   1.000
    C120    C    0.47132   0.76264   0.98492   1.000
    C121    C    0.97132   0.76264   0.98492   1.000
    C122    C    0.04194   0.74819   0.08635   1.000
    C123    C    0.54194   0.74819   0.08634   1.000
    N124    N    0.27349   0.85043   0.42118   1.000
    N125    N    0.77349   0.85043   0.42118   1.000
    N126    N    0.22820   0.86131   0.48645   1.000
    N127    N    0.72820   0.86131   0.48645   1.000
    N128    N    0.25918   0.69038   0.47195   1.000
    C129    C    0.04571   0.94439   0.12518   1.000
    C130    C    0.54570   0.94438   0.12517   1.000
    C131    C    0.11451   0.98893   0.09760   1.000
    C132    C    0.61451   0.98892   0.09764   1.000
    C133    C    0.01077   0.97647   0.28050   1.000
    C134    C    0.51077   0.97647   0.28050   1.000
    C135    C    0.08554   0.88323   0.33984   1.000
    C136    C    0.58554   0.88323   0.33984   1.000
    C137    C    0.27866   0.26275   0.98493   1.000
    C138    C    0.77867   0.26275   0.98493   1.000
    C139    C    0.20804   0.24824   0.08633   1.000
    C140    C    0.70804   0.24825   0.08633   1.000
    C141    C    0.20430   0.44443   0.12520   1.000
    C142    C    0.70430   0.44443   0.12520   1.000
    C143    C    0.13549   0.48894   0.09768   1.000
    C144    C    0.63549   0.48894   0.09768   1.000
    C145    C    0.23928   0.47648   0.28052   1.000
    C146    C    0.73929   0.47648   0.28052   1.000
    C147    C    0.16448   0.38326   0.33986   1.000
    C148    C    0.66449   0.38326   0.33986   1.000
    C149    C    0.47133   0.73728   0.48494   1.000
    C150    C    0.97132   0.73728   0.48494   1.000
    C151    C    0.04194   0.75184   0.58633   1.000
    C152    C    0.54194   0.75183   0.58632   1.000
    C153    C    0.04570   0.55564   0.62515   1.000
    C154    C    0.54570   0.55565   0.62515   1.000
    C155    C    0.11450   0.51111   0.59761   1.000
    C156    C    0.61450   0.51111   0.59761   1.000
    C157    C    0.01077   0.52358   0.78047   1.000
    C158    C    0.51077   0.52358   0.78047   1.000
    C159    C    0.08556   0.61682   0.83983   1.000
    C160    C    0.58556   0.61682   0.83982   1.000
    C161    C    0.22134   0.76272   0.51501   1.000
    C162    C    0.72134   0.76272   0.51501   1.000
    C163    C    0.29196   0.74822   0.41364   1.000
    C164    C    0.79197   0.74822   0.41364   1.000
    C165    C    0.29569   0.94439   0.37470   1.000
    C166    C    0.79569   0.94440   0.37479   1.000
    C167    C    0.36451   0.98892   0.40231   1.000
    C168    C    0.86451   0.98893   0.40231   1.000
    C169    C    0.26071   0.97647   0.21948   1.000
    C170    C    0.76072   0.97648   0.21948   1.000
    C171    C    0.33551   0.88332   0.16009   1.000
    C172    C    0.83551   0.88333   0.16009   1.000
    C173    C    0.02868   0.23739   0.01504   1.000
    C174    C    0.52868   0.23739   0.01503   1.000
    C175    C    0.45806   0.25185   0.91361   1.000
    C176    C    0.95806   0.25185   0.91361   1.000
    C177    C    0.45429   0.05565   0.87478   1.000
    C178    C    0.95429   0.05565   0.87478   1.000
    C179    C    0.38549   0.01110   0.90231   1.000
    C180    C    0.88549   0.01110   0.90231   1.000
    C181    C    0.48923   0.02357   0.71945   1.000
    C182    C    0.98923   0.02357   0.71946   1.000
    C183    C    0.41447   0.11681   0.66011   1.000
    C184    C    0.91447   0.11683   0.66012   1.000
    N185    N    0.27350   0.64957   0.92117   1.000
    N186    N    0.77351   0.64957   0.92117   1.000
    N187    N    0.22821   0.63868   0.98643   1.000
    N188    N    0.72822   0.63868   0.98644   1.000
    N189    N    0.25916   0.80964   0.97190   1.000
    N190    N    0.75916   0.80964   0.97192   1.000
    N191    N    0.29604   0.57295   0.78146   1.000
    N192    N    0.79604   0.57296   0.78147   1.000
    N193    N    0.34486   0.63259   0.74437   1.000
    N194    N    0.84486   0.63260   0.74437   1.000
    N195    N    0.28451   0.55009   0.64172   1.000
    N196    N    0.78451   0.55010   0.64172   1.000
    N197    N    0.47650   0.35043   0.42119   1.000
    N198    N    0.97650   0.35043   0.42120   1.000
    N199    N    0.02179   0.36135   0.48648   1.000
    N200    N    0.95394   0.42703   0.28152   1.000
    N201    N    0.40513   0.36737   0.24440   1.000
    N202    N    0.90513   0.36738   0.24441   1.000
    N203    N    0.46543   0.44992   0.14176   1.000
    N204    N    0.96542   0.44993   0.14177   1.000
    N205    N    0.22651   0.14960   0.57877   1.000
    N206    N    0.72651   0.14960   0.57877   1.000
    N207    N    0.27179   0.13872   0.51350   1.000
    N208    N    0.77180   0.13872   0.51350   1.000
    N209    N    0.24082   0.30966   0.52800   1.000
    N210    N    0.74082   0.30966   0.52800   1.000
    N211    N    0.20397   0.07299   0.71846   1.000
    N212    N    0.70398   0.07298   0.71846   1.000
    N213    N    0.15516   0.13258   0.75559   1.000
    N214    N    0.65517   0.13259   0.75559   1.000
    N215    N    0.21549   0.05005   0.85800   1.000
    N216    N    0.71549   0.05005   0.85819   1.000
    N217    N    0.02350   0.85040   0.07878   1.000
    N218    N    0.52350   0.85040   0.07877   1.000
    N219    N    0.47822   0.86126   0.01349   1.000
    N220    N    0.97821   0.86126   0.01349   1.000
    N221    N    0.00914   0.69032   0.02804   1.000
    N222    N    0.50914   0.69032   0.02804   1.000
    N223    N    0.04606   0.92704   0.21847   1.000
    N224    N    0.54606   0.92704   0.21846   1.000
    N225    N    0.09486   0.86739   0.25556   1.000
    N226    N    0.59486   0.86739   0.25556   1.000
    N227    N    0.03456   0.94994   0.35820   1.000
    N228    N    0.53457   0.94994   0.35821   1.000
    N229    N    0.22650   0.35047   0.07878   1.000
    N230    N    0.72650   0.35047   0.07878   1.000
    N231    N    0.27178   0.36136   0.01351   1.000
    N232    N    0.77179   0.36136   0.01351   1.000
    N233    N    0.24084   0.19040   0.02803   1.000
    N234    N    0.74084   0.19040   0.02803   1.000
    N235    N    0.20396   0.42708   0.21849   1.000
    N236    N    0.70396   0.42708   0.21849   1.000
    N237    N    0.15515   0.36744   0.25558   1.000
    N238    N    0.65515   0.36744   0.25558   1.000
    N239    N    0.21549   0.44994   0.35823   1.000
    N240    N    0.71549   0.44994   0.35823   1.000
    N241    N    0.02350   0.64960   0.57876   1.000
    N242    N    0.52350   0.64960   0.57875   1.000
    N243    N    0.47822   0.63869   0.51347   1.000
    N244    N    0.97821   0.63869   0.51348   1.000
    N245    N    0.00914   0.80966   0.52803   1.000
    N246    N    0.50914   0.80966   0.52800   1.000
    N247    N    0.04606   0.57301   0.71844   1.000
    N248    N    0.54606   0.57301   0.71844   1.000
    N249    N    0.09488   0.63266   0.75555   1.000
    N250    N    0.59487   0.63266   0.75555   1.000
    N251    N    0.03458   0.55011   0.85819   1.000
    N252    N    0.53457   0.55011   0.85810   1.000
    N253    N    0.75918   0.69038   0.47195   1.000
    N254    N    0.29602   0.92705   0.28149   1.000
    N255    N    0.79603   0.92705   0.28149   1.000
    N256    N    0.34484   0.86746   0.24436   1.000
    N257    N    0.84484   0.86746   0.24436   1.000
    N258    N    0.28451   0.94999   0.14175   1.000
    N259    N    0.78451   0.95000   0.14170   1.000
    N260    N    0.47650   0.14963   0.92118   1.000
    N261    N    0.97649   0.14963   0.92119   1.000
    N262    N    0.02179   0.13877   0.98647   1.000
    N263    N    0.52179   0.13877   0.98640   1.000
    N264    N    0.49086   0.30971   0.97191   1.000
    N265    N    0.99086   0.30972   0.97192   1.000
    N266    N    0.45394   0.07299   0.78149   1.000
    N267    N    0.95394   0.07300   0.78149   1.000
    N268    N    0.40514   0.13265   0.74439   1.000
    N269    N    0.90515   0.13266   0.74440   1.000
    N270    N    0.46544   0.05010   0.64174   1.000
    N271    N    0.96544   0.05011   0.64170   1.000
    O272    O    0.39176   0.55542   0.96657   1.000
    O273    O    0.89176   0.55542   0.96657   1.000
    O274    O    0.38328   0.43565   0.85617   1.000
    O275    O    0.88328   0.43565   0.85617   1.000
    O276    O    0.35823   0.44457   0.46662   1.000
    O277    O    0.85823   0.44457   0.46662   1.000
    O278    O    0.36672   0.56434   0.35626   1.000
    O279    O    0.86672   0.56434   0.35627   1.000
    O280    O    0.10823   0.05543   0.53337   1.000
    O281    O    0.60823   0.05544   0.53337   1.000
    O282    O    0.11670   0.93569   0.64374   1.000
    O283    O    0.61670   0.93569   0.64374   1.000
    O284    O    0.14176   0.94458   0.03336   1.000
    O285    O    0.64176   0.94458   0.03336   1.000
    O286    O    0.13330   0.06435   0.14375   1.000
    O287    O    0.63330   0.06435   0.14374   1.000
    O288    O    0.10824   0.44459   0.03339   1.000
    O289    O    0.60823   0.44460   0.03339   1.000
    O290    O    0.11671   0.56437   0.14378   1.000
    O291    O    0.61671   0.56437   0.14378   1.000
    O292    O    0.14176   0.55544   0.53334   1.000
    O293    O    0.64176   0.55544   0.53333   1.000
    O294    O    0.13328   0.43568   0.64369   1.000
    O295    O    0.63327   0.43568   0.64369   1.000
    O296    O    0.39176   0.94458   0.46658   1.000
    O297    O    0.89176   0.94458   0.46650   1.000
    O298    O    0.38330   0.06433   0.35622   1.000
    O299    O    0.88330   0.06434   0.35622   1.000
    O300    O    0.35823   0.05544   0.96660   1.000
    O301    O    0.85823   0.05544   0.96660   1.000
    O302    O    0.36670   0.93567   0.85620   1.000
    O303    O    0.86670   0.93568   0.85620   1.000
loop_
    _geom_bond_atom_site_label_1
    _geom_bond_atom_site_label_2
    _geom_bond_distance
    _geom_bond_site_symmetry_2
    _ccdc_geom_bond_type
    N220   N217      1.37393  1_655   S
    N220   C121      1.32837  1_554   S
    N219   N218      1.37372      .   S
    N219   C120      1.32836  1_554   S
    N231   N229      1.37371      .   S
    N231   C137      1.32833  1_554   S
    N232   N230      1.37373      .   S
    N232   C138      1.32833  1_554   S
    C80    H0        1.08301      .   S
    C80    N189      1.36923  1_554   S
    C80    N187      1.32838  1_554   S
    C81    H1        1.08301      .   S
    C81    N190      1.36909  1_554   S
    C81    N188      1.32832  1_554   S
    C174   H71       1.08300      .   S
    C174   N264      1.36921  1_554   S
    C174   N263      1.32867  1_554   S
    C173   H70       1.08302      .   S
    C173   N265      1.36927  1_454   S
    C173   N262      1.32837  1_554   S
    N233   C139      1.33766      .   S
    N233   C137      1.36909  1_554   S
    N234   C140      1.33767      .   S
    N234   C138      1.36910  1_554   S
    N222   C123      1.33766      .   S
    N222   C120      1.36921  1_554   S
    N221   C122      1.33774      .   S
    N221   C121      1.36929  1_454   S
    O285   C132      1.26614      .   S
    O284   C131      1.26569      .   S
    O289   C144      1.26616      .   S
    O288   C143      1.26618      .   S
    N218   C123      1.35026      .   S
    N218   C130      1.45772      .   S
    N230   C140      1.35030      .   S
    N230   C142      1.45776      .   S
    N229   C139      1.35029      .   S
    N229   C141      1.45778      .   S
    N217   C122      1.35026      .   S
    N217   C129      1.45772      .   S
    C140   H43       1.08388      .   S
    C139   H42       1.08385      .   S
    C123   H33       1.08380      .   S
    C122   H32       1.08380      .   S
    C131   C129      1.57497      .   S
    C131   O286      1.24874  1_565   S
    C132   C130      1.57476      .   S
    C132   O287      1.24833  1_565   S
    C144   C142      1.57485      .   S
    C144   O291      1.24843      .   S
    C143   C141      1.57483      .   S
    C143   O290      1.24842      .   S
    H34    C129      1.09650  1_545   S
    H35    C130      1.09627  1_545   S
    H44    C141      1.09639      .   S
    H45    C142      1.09640      .   S
    H68    C171      1.08478      .   S
    H69    C172      1.08479      .   S
    H19    C107      1.08534      .   S
    H18    C106      1.08479      .   S
    C130   N224      1.45204      .   S
    C129   N223      1.45204      .   S
    C141   N235      1.45205      .   S
    C142   N236      1.45205      .   S
    N259   C172      1.37095      .   S
    N259   C170      1.33467      .   S
    N258   C171      1.37080      .   S
    N258   C169      1.33398      .   S
    N203   C106      1.37081      .   S
    N203   C104      1.33398      .   S
    N204   C107      1.37077      .   S
    N204   C105      1.33398      .   S
    C171   N256      1.32583      .   S
    C172   N257      1.32583      .   S
    C107   N202      1.32590      .   S
    C106   N201      1.32575      .   S
    N224   N226      1.37541      .   S
    N224   C134      1.35012      .   S
    N223   N225      1.37535      .   S
    N223   C133      1.35003      .   S
    N236   N238      1.37536      .   S
    N236   C146      1.35006      .   S
    N235   N237      1.37536      .   S
    N235   C145      1.35006      .   S
    C170   H67       1.08575  1_565   S
    C170   N255      1.35014      .   S
    C169   H66       1.08575  1_565   S
    C169   N254      1.35013      .   S
    C104   H17       1.08584      .   S
    C104   N95       1.35011      .   S
    C105   H16       1.08599  1_655   S
    C105   N200      1.35012      .   S
    N257   N255      1.37538      .   S
    N256   N254      1.37539      .   S
    N201   N95       1.37544      .   S
    N202   N200      1.37541      .   S
    N226   C136      1.32584      .   S
    N225   C135      1.32584      .   S
    N238   C148      1.32585      .   S
    N237   C147      1.32584      .   S
    H36    C134      1.08577  1_545   S
    H37    C133      1.08589  1_645   S
    H47    C146      1.08585      .   S
    H46    C145      1.08585      .   S
    C133   N227      1.33377      .   S
    C134   N228      1.33390      .   S
    C145   N239      1.33392      .   S
    C146   N240      1.33392      .   S
    N255   C166      1.45211      .   S
    N254   C165      1.45074      .   S
    N95    C100      1.45199      .   S
    N200   C101      1.45199      .   S
    C135   N227      1.37074      .   S
    C135   H38       1.08462      .   S
    C136   N228      1.37077      .   S
    C136   H39       1.08474      .   S
    C148   N240      1.37077      .   S
    C148   H49       1.08476      .   S
    C147   N239      1.37077      .   S
    C147   H48       1.08475      .   S
    O299   C168      1.24831  1_545   S
    O298   C167      1.24830  1_545   S
    O278   C102      1.24845      .   S
    O279   C103      1.24834      .   S
    H13    C99       1.08388      .   S
    H12    C98       1.08360      .   S
    H62    C163      1.08383      .   S
    H63    C164      1.08384      .   S
    C165   H64       1.09654  1_565   S
    C165   C167      1.57518      .   S
    C165   N124      1.45835      .   S
    C166   H65       1.09616  1_565   S
    C166   C168      1.57478      .   S
    C166   N125      1.45768      .   S
    C100   H14       1.09639      .   S
    C100   C102      1.57482      .   S
    C100   N197      1.45773      .   S
    C101   H15       1.09638      .   S
    C101   C103      1.57479      .   S
    C101   N198      1.45772      .   S
    C167   O296      1.26617      .   S
    C168   O297      1.26519      .   S
    C103   O277      1.26629      .   S
    C102   O276      1.26624      .   S
    C98    N197      1.35032      .   S
    C98    N93       1.33792      .   S
    C99    N198      1.35029      .   S
    C99    N94       1.33769      .   S
    C163   N124      1.35029      .   S
    C163   N128      1.33768      .   S
    C164   N125      1.35028      .   S
    C164   N253      1.33768      .   S
    N125   N127      1.37370      .   S
    N124   N126      1.37367      .   S
    N197   N92       1.37373      .   S
    N198   N199      1.37381  1_655   S
    H20    C108      1.08307      .   S
    H50    C149      1.08309      .   S
    H21    C109      1.08297      .   S
    H51    C150      1.08297      .   S
    N93    C97       1.36901      .   S
    N94    C96       1.36909  1_655   S
    N253   C162      1.36895      .   S
    N128   C161      1.36895      .   S
    C108   N207      1.32811      .   S
    C108   N209      1.36895      .   S
    C150   N244      1.32815      .   S
    C150   N245      1.36908  1_655   S
    C149   N243      1.32809      .   S
    C149   N246      1.36876      .   S
    C109   N208      1.32812      .   S
    C109   N210      1.36896      .   S
    N126   C161      1.32811      .   S
    N127   C162      1.32810      .   S
    N92    C97       1.32813      .   S
    N199   C96       1.32815      .   S
    N243   N242      1.37371      .   S
    N244   N241      1.37381  1_655   S
    N207   N205      1.37370      .   S
    N208   N206      1.37374      .   S
    C162   H61       1.08308      .   S
    C97    H11       1.08299      .   S
    C161   H60       1.08308      .   S
    C96    H10       1.08293      .   S
    N210   C111      1.33771      .   S
    N246   C152      1.33792      .   S
    N209   C110      1.33769      .   S
    N245   C151      1.33770      .   S
    O293   C156      1.26621      .   S
    O292   C155      1.26613      .   S
    O280   C114      1.26625      .   S
    O281   C115      1.26625      .   S
    N242   C152      1.35029      .   S
    N242   C154      1.45778      .   S
    N241   C151      1.35029      .   S
    N241   C153      1.45774      .   S
    N206   C111      1.35029      .   S
    N206   C113      1.45769      .   S
    N205   C110      1.35029      .   S
    N205   C112      1.45722      .   S
    C110   H22       1.08381      .   S
    C111   H23       1.08382      .   S
    C152   H53       1.08389      .   S
    C151   H52       1.08390      .   S
    C155   C153      1.57482      .   S
    C155   O294      1.24839      .   S
    C156   C154      1.57482      .   S
    C156   O295      1.24842      .   S
    C114   C112      1.57454      .   S
    C114   O282      1.24828  1_545   S
    C115   C113      1.57482      .   S
    C115   O283      1.24829  1_545   S
    H25    C113      1.09626  1_565   S
    H24    C112      1.09604  1_565   S
    H55    C154      1.09638      .   S
    H54    C153      1.09637      .   S
    H8     C90       1.08476      .   S
    H9     C91       1.08477      .   S
    H78    C183      1.08472      .   S
    H79    C184      1.08473      .   S
    C112   N211      1.45303      .   S
    C153   N247      1.45200      .   S
    C154   N248      1.45200      .   S
    C113   N212      1.45212      .   S
    N271   C184      1.37093      .   S
    N271   C182      1.33460      .   S
    N195   C90       1.37077      .   S
    N195   C88       1.33391      .   S
    N196   C91       1.37076      .   S
    N196   C89       1.33392      .   S
    N270   C183      1.37076      .   S
    N270   C181      1.33391      .   S
    C91    N194      1.32585      .   S
    C90    N193      1.32585      .   S
    C183   N268      1.32585      .   S
    C184   N269      1.32584      .   S
    N248   N250      1.37543      .   S
    N248   C158      1.35011      .   S
    N247   N249      1.37542      .   S
    N247   C157      1.35011      .   S
    N211   N213      1.37540      .   S
    N211   C116      1.35014      .   S
    N212   N214      1.37538      .   S
    N212   C117      1.35013      .   S
    C89    H7        1.08586      .   S
    C89    N192      1.35017      .   S
    C88    H6        1.08586      .   S
    C88    N191      1.35006      .   S
    C181   H77       1.08576  1_545   S
    C181   N266      1.35014      .   S
    C182   H76       1.08589  1_645   S
    C182   N267      1.35002      .   S
    N193   N191      1.37535      .   S
    N194   N192      1.37541      .   S
    N268   N266      1.37541      .   S
    N269   N267      1.37536      .   S
    N250   C160      1.32574      .   S
    N249   C159      1.32589      .   S
    N214   C119      1.32584      .   S
    N213   C118      1.32584      .   S
    H27    C117      1.08576  1_565   S
    H26    C116      1.08575  1_565   S
    H56    C158      1.08584      .   S
    H57    C157      1.08599  1_655   S
    C117   N216      1.33383      .   S
    C116   N215      1.33123      .   S
    C157   N251      1.33397      .   S
    C158   N252      1.33274      .   S
    N191   C84       1.45206      .   S
    N192   C85       1.45191      .   S
    N267   C178      1.45205      .   S
    N266   C177      1.45204      .   S
    C160   N252      1.37054      .   S
    C160   H59       1.08479      .   S
    C159   N251      1.37079      .   S
    C159   H58       1.08469      .   S
    C118   N215      1.37015      .   S
    C118   H28       1.08479      .   S
    C119   N216      1.37075      .   S
    C119   H29       1.08478      .   S
    O275   C87       1.24839      .   S
    O274   C86       1.24839      .   S
    O302   C179      1.24839  1_565   S
    O303   C180      1.24837  1_565   S
    H73    C176      1.08426      .   S
    H72    C175      1.08381      .   S
    H2     C82       1.08388      .   S
    H3     C83       1.08388      .   S
    C84    H4        1.09618      .   S
    C84    C86       1.57480      .   S
    C84    N185      1.45779      .   S
    C85    H5        1.09642      .   S
    C85    C87       1.57479      .   S
    C85    N186      1.45778      .   S
    C178   H75       1.09629  1_545   S
    C178   C180      1.57482      .   S
    C178   N261      1.45777      .   S
    C177   H74       1.09626  1_545   S
    C177   C179      1.57481      .   S
    C177   N260      1.45773      .   S
    C86    O272      1.26627      .   S
    C87    O273      1.26625      .   S
    C179   O300      1.26622      .   S
    C180   O301      1.26625      .   S
    C176   N261      1.35027      .   S
    C176   N265      1.33776      .   S
    C175   N260      1.35026      .   S
    C175   N264      1.33771      .   S
    C82    N185      1.35028      .   S
    C82    N189      1.33748      .   S
    C83    N186      1.35029      .   S
    C83    N190      1.33768      .   S
    N186   N188      1.37372      .   S
    N185   N187      1.37365      .   S
    N260   N263      1.37310      .   S
    N261   N262      1.37386  1_655   S
    H30    C120      1.08388      .   S
    H31    C121      1.08303      .   S
    H40    C137      1.08300      .   S
    H41    C138      1.08301      .   S
