# CIF file generated by openbabel 2.4.90, see http://openbabel.sf.net
data_I
_chemical_name_common ''
_cell_length_a 20.472
_cell_length_b 12.631
_cell_length_c 15.386
_cell_angle_alpha 90.011
_cell_angle_beta 90.002
_cell_angle_gamma 90.012
_space_group_name_H-M_alt 'P 1'
_space_group_name_Hall 'P 1'
loop_
    _symmetry_equiv_pos_as_xyz
    x,y,z
loop_
    _atom_site_label
    _atom_site_type_symbol
    _atom_site_fract_x
    _atom_site_fract_y
    _atom_site_fract_z
    _atom_site_occupancy
    Zr0     Zr   1.00000   0.50002   0.00000   1.000
    Zr1     Zr   0.50000   0.50002   0.99999   1.000
    Zr2     Zr   0.25000   0.50002   0.49990   1.000
    Zr3     Zr   0.75000   0.50002   0.49990   1.000
    Zr4     Zr   0.00000   0.00001   0.49998   1.000
    Zr5     Zr   0.50000   0.00001   0.49997   1.000
    Zr6     Zr   0.25000   0.00001   0.99999   1.000
    Zr7     Zr   0.75000   0.00002   0.99999   1.000
    N8      N    0.95573   0.38419   0.34848   1.000
    O9      O    0.96922   0.42958   0.20968   1.000
    O10     O    0.97558   0.23969   0.41722   1.000
    O11     O    0.87992   0.42824   0.41587   1.000
    N12     N    0.79426   0.61582   0.84844   1.000
    O13     O    0.77442   0.76032   0.91720   1.000
    O14     O    0.78076   0.57044   0.70963   1.000
    O15     O    0.87007   0.57177   0.91586   1.000
    N16     N    0.45573   0.11586   0.84846   1.000
    O17     O    0.47558   0.26036   0.91720   1.000
    O18     O    0.37992   0.07179   0.91588   1.000
    O19     O    0.46923   0.07046   0.70966   1.000
    N20     N    0.45573   0.38419   0.34848   1.000
    O21     O    0.46922   0.42958   0.20968   1.000
    O22     O    0.37992   0.42824   0.41587   1.000
    O23     O    0.47558   0.23969   0.41721   1.000
    N24     N    0.70574   0.11583   0.65148   1.000
    O25     O    0.71924   0.07043   0.79029   1.000
    O26     O    0.72558   0.26033   0.58272   1.000
    O27     O    0.62993   0.07177   0.58408   1.000
    N28     N    0.95573   0.11586   0.84846   1.000
    O29     O    0.97558   0.26037   0.91721   1.000
    O30     O    0.87992   0.07180   0.91588   1.000
    O31     O    0.96923   0.07046   0.70965   1.000
    N32     N    0.54427   0.61584   0.65146   1.000
    O33     O    0.53078   0.57045   0.79025   1.000
    O34     O    0.62007   0.57179   0.58404   1.000
    O35     O    0.52442   0.76034   0.58272   1.000
    N36     N    0.29426   0.88421   0.34846   1.000
    O37     O    0.27442   0.73970   0.41719   1.000
    O38     O    0.28076   0.92961   0.20967   1.000
    O39     O    0.37007   0.92825   0.41587   1.000
    N40     N    0.20574   0.38422   0.15151   1.000
    O41     O    0.12993   0.42826   0.08410   1.000
    O42     O    0.21924   0.42960   0.29029   1.000
    O43     O    0.22558   0.23971   0.08276   1.000
    N44     N    0.04427   0.88417   0.15148   1.000
    O45     O    0.03077   0.92957   0.29029   1.000
    O46     O    0.02442   0.73967   0.08275   1.000
    O47     O    0.12007   0.92823   0.08408   1.000
    N48     N    0.29426   0.61581   0.84844   1.000
    O49     O    0.27442   0.76032   0.91719   1.000
    O50     O    0.37007   0.57177   0.91586   1.000
    O51     O    0.28076   0.57043   0.70962   1.000
    N52     N    0.79426   0.88421   0.34846   1.000
    O53     O    0.77442   0.73970   0.41719   1.000
    O54     O    0.78076   0.92961   0.20965   1.000
    O55     O    0.87007   0.92825   0.41585   1.000
    N56     N    0.20574   0.11582   0.65147   1.000
    O57     O    0.21924   0.07043   0.79023   1.000
    O58     O    0.12993   0.07177   0.58407   1.000
    O59     O    0.22558   0.26033   0.58271   1.000
    N60     N    0.54427   0.88417   0.15148   1.000
    O61     O    0.52442   0.73967   0.08275   1.000
    O62     O    0.62008   0.92823   0.08408   1.000
    O63     O    0.53078   0.92957   0.29029   1.000
    N64     N    0.70575   0.38422   0.15151   1.000
    O65     O    0.62993   0.42826   0.08410   1.000
    O66     O    0.71925   0.42960   0.29029   1.000
    O67     O    0.72558   0.23971   0.08276   1.000
    N68     N    0.04427   0.61584   0.65147   1.000
    O69     O    0.03078   0.57045   0.79028   1.000
    O70     O    0.02442   0.76034   0.58274   1.000
    O71     O    0.12007   0.57179   0.58405   1.000
loop_
    _geom_bond_atom_site_label_1
    _geom_bond_atom_site_label_2
    _geom_bond_distance
    _geom_bond_site_symmetry_2
    _ccdc_geom_bond_type
    N8     O9        2.22847      .   S
    Zr0    O9        3.40556      .   S
    N8     O10       2.14845      .   S
    Zr4    O10       3.32244  1_455   S
    N8     O11       1.94767      .   S
    Zr3    O11       3.09334      .   S
    N12    O13       2.14830      .   S
    Zr7    O13       3.32234  1_545   S
    N12    O14       2.22849      .   S
    Zr3    O14       3.40570      .   S
    N12    O15       1.94801      .   S
    Zr0    O15       3.09409  1_554   S
    N16    O17       2.14807      .   S
    Zr1    O17       3.32165      .   S
    N16    O18       1.94791      .   S
    Zr6    O18       3.09373      .   S
    N16    O19       2.22837      .   S
    Zr5    O19       3.40538      .   S
    N20    O21       2.22850      .   S
    Zr1    O21       3.40562  1_556   S
    N20    O22       1.94768      .   S
    Zr2    O22       3.09336      .   S
    N20    O23       2.14842      .   S
    Zr5    O23       3.32241      .   S
    N24    O25       2.22858      .   S
    Zr7    O25       3.40572      .   S
    N24    O26       2.14857      .   S
    Zr3    O26       3.32266      .   S
    N24    O27       1.94768      .   S
    Zr5    O27       3.09351      .   S
    N28    O29       2.14807      .   S
    Zr0    O29       3.32165  1_554   S
    N28    O30       1.94790      .   S
    Zr7    O30       3.09370      .   S
    N28    O31       2.22851      .   S
    Zr4    O31       3.40516  1_455   S
    N32    O33       2.22834      .   S
    Zr1    O33       3.40632      .   S
    N32    O34       1.94795      .   S
    Zr3    O34       3.09406      .   S
    N32    O35       2.14844      .   S
    Zr5    O35       3.32229  1_545   S
    N36    O37       2.14830      .   S
    Zr2    O37       3.32201      .   S
    N36    O38       2.22848      .   S
    Zr6    O38       3.40531  1_546   S
    N36    O39       1.94762      .   S
    Zr5    O39       3.09345  1_545   S
    N40    O41       1.94793      .   S
    Zr0    O41       3.09397  1_655   S
    N40    O42       2.22794      .   S
    Zr2    O42       3.40404      .   S
    N40    O43       2.14825      .   S
    Zr6    O43       3.32225  1_556   S
    N44    O45       2.22837      .   S
    Zr4    O45       3.40543  1_545   S
    N44    O46       2.14795      .   S
    Zr0    O46       3.32140  1_655   S
    N44    O47       1.94777      .   S
    Zr6    O47       3.09360  1_546   S
    N48    O49       2.14828      .   S
    Zr6    O49       3.32238  1_545   S
    N48    O50       1.94805      .   S
    Zr1    O50       3.09413      .   S
    N48    O51       2.22845      .   S
    Zr2    O51       3.40565      .   S
    N52    O53       2.14832      .   S
    Zr3    O53       3.32203      .   S
    N52    O54       2.22864      .   S
    Zr7    O54       3.40510  1_546   S
    N52    O55       1.94748      .   S
    Zr4    O55       3.09368  1_445   S
    N56    O57       2.22798      .   S
    Zr6    O57       3.40652      .   S
    N56    O58       1.94756      .   S
    Zr4    O58       3.09336      .   S
    N56    O59       2.14852      .   S
    Zr2    O59       3.32262      .   S
    N60    O61       2.14797      .   S
    Zr1    O61       3.32145  1_556   S
    N60    O62       1.94776      .   S
    Zr7    O62       3.09361  1_546   S
    N60    O63       2.22838      .   S
    Zr5    O63       3.40530  1_545   S
    N64    O65       1.94795      .   S
    Zr1    O65       3.09395  1_556   S
    N64    O66       2.22793      .   S
    Zr3    O66       3.40403      .   S
    N64    O67       2.14824      .   S
    Zr7    O67       3.32224  1_556   S
    N68    O69       2.22863      .   S
    Zr0    O69       3.40604  1_654   S
    N68    O70       2.14841      .   S
    Zr4    O70       3.32233  1_545   S
    N68    O71       1.94798      .   S
    Zr2    O71       3.09411      .   S
