# CIF file generated by openbabel 2.4.90, see http://openbabel.sf.net
data_I
_chemical_name_common ''
_cell_length_a 11.628
_cell_length_b 13.002
_cell_length_c 13.003
_cell_angle_alpha 95.91
_cell_angle_beta 106.121
_cell_angle_gamma 106.096
_space_group_name_H-M_alt 'P 1'
_space_group_name_Hall 'P 1'
loop_
    _symmetry_equiv_pos_as_xyz
    x,y,z
loop_
    _atom_site_label
    _atom_site_type_symbol
    _atom_site_fract_x
    _atom_site_fract_y
    _atom_site_fract_z
    _atom_site_occupancy
    Lv0     Lv   0.74992   0.71803   0.78287   1.000
    Lv1     Lv   0.24992   0.78313   0.71804   1.000
    Lv2     Lv   0.74992   0.21675   0.28196   1.000
    Lv3     Lv   0.99973   0.99960   0.50000   1.000
    Lv4     Lv   0.25004   0.28195   0.21711   1.000
    Lv5     Lv   0.49998   0.49998   0.99953   1.000
