# CIF file generated by openbabel 2.4.90, see http://openbabel.sf.net
data_I
_chemical_name_common ''
_cell_length_a 11.628
_cell_length_b 13.002
_cell_length_c 13.003
_cell_angle_alpha 95.91
_cell_angle_beta 106.121
_cell_angle_gamma 106.096
_space_group_name_H-M_alt 'P 1'
_space_group_name_Hall 'P 1'
loop_
    _symmetry_equiv_pos_as_xyz
    x,y,z
loop_
    _atom_site_label
    _atom_site_type_symbol
    _atom_site_fract_x
    _atom_site_fract_y
    _atom_site_fract_z
    _atom_site_occupancy
    N0      N    0.74992   0.71803   0.78287   1.000
    N1      N    0.24992   0.78313   0.71804   1.000
    N2      N    0.74992   0.21675   0.28196   1.000
    N3      N    0.99973   0.99960   0.50000   1.000
    N4      N    0.25004   0.28195   0.21711   1.000
    N5      N    0.49998   0.49998   0.99953   1.000
    Zr6     Zr   0.74997   0.21809   0.78192   1.000
    O7      O    0.75619   0.03235   0.78328   1.000
    O8      O    0.74373   0.40377   0.78105   1.000
    O9      O    0.75623   0.21870   0.59623   1.000
    O10     O    0.76039   0.14609   0.69347   1.000
    O11     O    0.74368   0.21669   0.96765   1.000
    O12     O    0.73948   0.30652   0.85368   1.000
    Zr13    Zr   0.24999   0.78190   0.21806   1.000
    O14     O    0.25624   0.59622   0.21892   1.000
    O15     O    0.25624   0.78328   0.03233   1.000
    O16     O    0.24371   0.78123   0.40376   1.000
    O17     O    0.24376   0.96763   0.21673   1.000
    O18     O    0.23944   0.85369   0.30651   1.000
    O19     O    0.26047   0.69345   0.14607   1.000
loop_
    _geom_bond_atom_site_label_1
    _geom_bond_atom_site_label_2
    _geom_bond_distance
    _geom_bond_site_symmetry_2
    _ccdc_geom_bond_type
    Zr6    O7        2.43771      .   S
    N0     O7        4.06665  1_565   S
    Zr6    O8        2.43641      .   S
    N0     O8        4.06415      .   S
    Zr6    O9        2.43641      .   S
    N2     O9        4.06408      .   S
    Zr6    O10       1.46020      .   S
    N3     O10       4.85207  1_565   S
    Zr6    O11       2.43814      .   S
    N2     O11       4.06737  1_554   S
    Zr6    O12       1.45868      .   S
    N5     O12       4.84917      .   S
    Zr13   O14       2.43647      .   S
    N4     O14       4.06424      .   S
    Zr13   O15       2.43804      .   S
    N1     O15       4.06669  1_556   S
    Zr13   O16       2.43675      .   S
    N1     O16       4.06450      .   S
    Zr13   O17       2.43764      .   S
    N4     O17       4.06657  1_545   S
    Zr13   O18       1.45940      .   S
    N3     O18       4.85199  1_655   S
    Zr13   O19       1.46047      .   S
    N5     O19       4.85382  1_556   S
