# CIF file generated by openbabel 2.4.90, see http://openbabel.sf.net
data_I
_chemical_name_common ''
_cell_length_a 11.628
_cell_length_b 13.002
_cell_length_c 13.003
_cell_angle_alpha 95.91
_cell_angle_beta 106.121
_cell_angle_gamma 106.096
_space_group_name_H-M_alt 'P 1'
_space_group_name_Hall 'P 1'
loop_
    _symmetry_equiv_pos_as_xyz
    x,y,z
loop_
    _atom_site_label
    _atom_site_type_symbol
    _atom_site_fract_x
    _atom_site_fract_y
    _atom_site_fract_z
    _atom_site_occupancy
    Zr0     Zr   0.64111   0.17996   0.74326   1.000
    Zr1     Zr   0.85882   0.25676   0.82010   1.000
    Zr2     Zr   0.35885   0.82004   0.25670   1.000
    Zr3     Zr   0.14114   0.74324   0.17992   1.000
    Zr4     Zr   0.73162   0.21815   0.97016   1.000
    Zr5     Zr   0.76866   0.21782   0.59397   1.000
    Zr6     Zr   0.76819   0.02984   0.78217   1.000
    Zr7     Zr   0.73142   0.40605   0.78167   1.000
    Zr8     Zr   0.26832   0.78190   0.02980   1.000
    Zr9     Zr   0.23131   0.78206   0.40605   1.000
    Zr10    Zr   0.23176   0.97015   0.21794   1.000
    Zr11    Zr   0.26855   0.59393   0.21826   1.000
    Zr12    Zr   0.63050   0.18177   0.88757   1.000
    Zr13    Zr   0.84249   0.25961   0.96376   1.000
    Zr14    Zr   0.65752   0.17802   0.60061   1.000
    Zr15    Zr   0.86998   0.25315   0.67605   1.000
    Zr16    Zr   0.86932   0.11241   0.81852   1.000
    Zr17    Zr   0.65732   0.03629   0.74072   1.000
    Zr18    Zr   0.84253   0.39940   0.82170   1.000
    Zr19    Zr   0.63005   0.32402   0.74657   1.000
    Zr20    Zr   0.36944   0.81828   0.11246   1.000
    Zr21    Zr   0.15745   0.74044   0.03620   1.000
    Zr22    Zr   0.34244   0.82190   0.39941   1.000
    Zr23    Zr   0.12999   0.74679   0.32397   1.000
    Zr24    Zr   0.13062   0.88759   0.18155   1.000
    Zr25    Zr   0.34263   0.96371   0.25940   1.000
    Zr26    Zr   0.15744   0.60060   0.17824   1.000
    Zr27    Zr   0.36991   0.67597   0.25300   1.000
    O28     O    0.21289   0.76117   0.03300   1.000
    O29     O    0.31888   0.80009   0.07113   1.000
    O30     O    0.14930   0.74184   0.10806   1.000
    O31     O    0.36415   0.81916   0.18458   1.000
    O32     O    0.14929   0.67192   0.17908   1.000
    O33     O    0.21300   0.59727   0.19825   1.000
    O34     O    0.13588   0.81542   0.18073   1.000
    O35     O    0.13556   0.74502   0.25195   1.000
    O36     O    0.18119   0.92887   0.19975   1.000
    O37     O    0.28720   0.96693   0.23867   1.000
    O38     O    0.31923   0.63495   0.23563   1.000
    O39     O    0.36438   0.74801   0.25485   1.000
    O40     O    0.35074   0.89188   0.25805   1.000
    O41     O    0.35065   0.82097   0.32805   1.000
    O42     O    0.18065   0.76442   0.36501   1.000
    O43     O    0.28688   0.80198   0.40273   1.000
    O44     O    0.71309   0.19792   0.59729   1.000
    O45     O    0.81932   0.23548   0.63501   1.000
    O46     O    0.64932   0.17899   0.67194   1.000
    O47     O    0.86440   0.25495   0.74808   1.000
    O48     O    0.64921   0.10812   0.74199   1.000
    O49     O    0.71276   0.03307   0.76145   1.000
    O50     O    0.63558   0.25199   0.74491   1.000
    O51     O    0.63580   0.18086   0.81542   1.000
    O52     O    0.68073   0.36504   0.76412   1.000
    O53     O    0.78697   0.40272   0.80168   1.000
    O54     O    0.81875   0.07113   0.80035   1.000
    O55     O    0.86407   0.18458   0.81931   1.000
    O56     O    0.85067   0.32808   0.82090   1.000
    O57     O    0.85065   0.25818   0.89193   1.000
    O58     O    0.68106   0.19996   0.92887   1.000
    O59     O    0.78706   0.23888   0.96696   1.000
    O60     O    0.74996   0.21836   0.78168   1.000
    O61     O    0.25000   0.78164   0.21831   1.000
    N62     N    0.74992   0.71803   0.78287   1.000
    O63     O    0.73749   0.58945   0.78018   1.000
    O64     O    0.76242   0.84662   0.78465   1.000
    N65     N    0.24992   0.78313   0.71804   1.000
    O66     O    0.26249   0.78467   0.84659   1.000
    O67     O    0.23742   0.78056   0.58946   1.000
    N68     N    0.74992   0.21675   0.28196   1.000
    O69     O    0.73740   0.21529   0.15338   1.000
    O70     O    0.76249   0.21930   0.41055   1.000
    N71     N    0.99973   0.99960   0.50000   1.000
    O72     O    0.77082   0.07410   0.60503   1.000
    O73     O    0.22889   0.92548   0.39496   1.000
    N74     N    0.25004   0.28195   0.21711   1.000
    O75     O    0.23754   0.15336   0.21540   1.000
    O76     O    0.26248   0.41053   0.21977   1.000
    N77     N    0.49998   0.49998   0.99953   1.000
    O78     O    0.72900   0.39496   0.92545   1.000
    O79     O    0.27095   0.60501   0.07408   1.000
loop_
    _geom_bond_atom_site_label_1
    _geom_bond_atom_site_label_2
    _geom_bond_distance
    _geom_bond_site_symmetry_2
    _ccdc_geom_bond_type
    Zr8    O28       0.64090      .   S
    Zr21   O28       0.64090      .   S
    Zr8    O29       0.64161      .   S
    Zr20   O29       0.64161      .   S
    Zr21   O30       0.96389      .   S
    Zr3    O30       0.96389      .   S
    Zr20   O31       0.95582      .   S
    Zr2    O31       0.95582      .   S
    Zr26   O32       0.95723      .   S
    Zr3    O32       0.95723      .   S
    Zr26   O33       0.64138      .   S
    Zr11   O33       0.64138      .   S
    Zr3    O34       0.95632      .   S
    Zr24   O34       0.95632      .   S
    Zr3    O35       0.95496      .   S
    Zr23   O35       0.95496      .   S
    Zr24   O36       0.64140      .   S
    Zr10   O36       0.64140      .   S
    Zr10   O37       0.64086      .   S
    Zr25   O37       0.64086      .   S
    Zr11   O38       0.64008      .   S
    Zr27   O38       0.64008      .   S
    Zr27   O39       0.95478      .   S
    Zr2    O39       0.95478      .   S
    Zr2    O40       0.96330      .   S
    Zr25   O40       0.96330      .   S
    Zr2    O41       0.95791      .   S
    Zr22   O41       0.95791      .   S
    Zr23   O42       0.64009      .   S
    Zr9    O42       0.64009      .   S
    Zr22   O43       0.64142      .   S
    Zr9    O43       0.64142      .   S
    Zr5    O44       0.64140      .   S
    Zr14   O44       0.64140      .   S
    Zr5    O45       0.64008      .   S
    Zr15   O45       0.64008      .   S
    Zr14   O46       0.95752      .   S
    Zr0    O46       0.95752      .   S
    Zr15   O47       0.95495      .   S
    Zr1    O47       0.95495      .   S
    Zr17   O48       0.96333      .   S
    Zr0    O48       0.96333      .   S
    Zr17   O49       0.64083      .   S
    Zr6    O49       0.64083      .   S
    Zr0    O50       0.95488      .   S
    Zr19   O50       0.95488      .   S
    Zr0    O51       0.95629      .   S
    Zr12   O51       0.95629      .   S
    Zr19   O52       0.64011      .   S
    Zr7    O52       0.64011      .   S
    Zr7    O53       0.64136      .   S
    Zr18   O53       0.64136      .   S
    Zr6    O54       0.64140      .   S
    Zr16   O54       0.64140      .   S
    Zr16   O55       0.95634      .   S
    Zr1    O55       0.95634      .   S
    Zr1    O56       0.95724      .   S
    Zr18   O56       0.95724      .   S
    Zr1    O57       0.96352      .   S
    Zr13   O57       0.96352      .   S
    Zr12   O58       0.64138      .   S
    Zr4    O58       0.64138      .   S
    Zr13   O59       0.64088      .   S
    Zr4    O59       0.64088      .   S
    Zr0    O60       1.16107      .   S
    Zr1    O60       1.16107      .   S
    Zr2    O61       1.16104      .   S
    Zr3    O61       1.16104      .   S
    N62    O63       1.63347      .   S
    Zr7    O63       2.36823      .   S
    N62    O64       1.63477      .   S
    Zr6    O64       2.36837  1_545   S
    N65    O66       1.63457      .   S
    Zr8    O66       2.36858  1_554   S
    N65    O67       1.63356      .   S
    Zr9    O67       2.36838      .   S
    N68    O69       1.63514      .   S
    Zr4    O69       2.36907  1_556   S
    N68    O70       1.63353      .   S
    Zr5    O70       2.36833      .   S
    N71    O72       3.61447  1_565   S
    Zr0    O72       3.08985      .   S
    N71    O73       3.61504  1_655   S
    Zr2    O73       3.08956      .   S
    N74    O75       1.63477      .   S
    Zr10   O75       2.36836  1_565   S
    N74    O76       1.63351      .   S
    Zr11   O76       2.36829      .   S
    N77    O78       3.61311      .   S
    Zr1    O78       3.08701      .   S
    N77    O79       3.61583  1_556   S
    Zr3    O79       3.09053      .   S
