# CIF file generated by openbabel 2.4.90, see http://openbabel.sf.net
data_I
_chemical_name_common 'La2H4C11N4O11'
_cell_length_a 8.651
_cell_length_b 15.345
_cell_length_c 17.421
_cell_angle_alpha 90
_cell_angle_beta 90
_cell_angle_gamma 90.001
_space_group_name_H-M_alt 'P 1'
_space_group_name_Hall 'P 1'
loop_
    _symmetry_equiv_pos_as_xyz
    x,y,z
loop_
    _atom_site_label
    _atom_site_type_symbol
    _atom_site_fract_x
    _atom_site_fract_y
    _atom_site_fract_z
    _atom_site_occupancy
    La0     La   0.64421   0.26478   0.38890   1.000
    La1     La   0.85580   0.76476   0.61108   1.000
    La2     La   0.35579   0.73524   0.88889   1.000
    La3     La   0.14421   0.23526   0.11109   1.000
    La4     La   0.35579   0.73524   0.61108   1.000
    La5     La   0.14420   0.23526   0.38890   1.000
    La6     La   0.64421   0.26478   0.11109   1.000
    La7     La   0.85579   0.76476   0.88889   1.000
    H8      H    0.44807   0.00726   0.59851   1.000
    H9      H    0.98058   0.06806   0.55363   1.000
    H10     H    0.05194   0.50725   0.40146   1.000
    H11     H    0.51942   0.56806   0.44636   1.000
    H12     H    0.55194   0.99276   0.09853   1.000
    H13     H    0.01944   0.93196   0.05364   1.000
    H14     H    0.94807   0.49277   0.90145   1.000
    H15     H    0.48058   0.43197   0.94634   1.000
    H16     H    0.55194   0.99277   0.40148   1.000
    H17     H    0.01943   0.93197   0.44635   1.000
    H18     H    0.94807   0.49277   0.59852   1.000
    H19     H    0.48059   0.43196   0.55363   1.000
    H20     H    0.44806   0.00726   0.90146   1.000
    H21     H    0.98057   0.06806   0.94634   1.000
    H22     H    0.05194   0.50725   0.09853   1.000
    H23     H    0.51942   0.56805   0.05363   1.000
    C24     C    0.44499   0.17463   0.50291   1.000
    C25     C    0.32779   0.11717   0.53823   1.000
    C26     C    0.34302   0.03934   0.58007   1.000
    C27     C    0.19259   0.00999   0.59112   1.000
    C28     C    0.13376   0.92633   0.62273   1.000
    C29     C    0.05501   0.67461   0.49708   1.000
    C30     C    0.17221   0.61715   0.46176   1.000
    C31     C    0.15698   0.53933   0.41991   1.000
    C32     C    0.30742   0.50999   0.40887   1.000
    C33     C    0.36626   0.42635   0.37726   1.000
    C34     C    0.55501   0.82540   0.00000   1.000
    C35     C    0.67222   0.88285   0.03824   1.000
    C36     C    0.65699   0.96068   0.08008   1.000
    C37     C    0.80742   0.99003   0.09112   1.000
    C38     C    0.86625   0.07369   0.12273   1.000
    C39     C    0.94500   0.32541   0.99709   1.000
    C40     C    0.82779   0.38287   0.96174   1.000
    C41     C    0.84302   0.46070   0.91990   1.000
    C42     C    0.69259   0.49004   0.90885   1.000
    C43     C    0.63375   0.57367   0.87725   1.000
    C44     C    0.55502   0.82539   0.49707   1.000
    C45     C    0.67222   0.88286   0.46176   1.000
    C46     C    0.65699   0.96069   0.41992   1.000
    C47     C    0.80742   0.99003   0.40887   1.000
    C48     C    0.86625   0.07369   0.37726   1.000
    C49     C    0.94499   0.32541   0.50290   1.000
    C50     C    0.82780   0.38286   0.53823   1.000
    C51     C    0.84303   0.46069   0.58008   1.000
    C52     C    0.69259   0.49003   0.59112   1.000
    C53     C    0.63375   0.57367   0.62272   1.000
    C54     C    0.44499   0.17462   0.99709   1.000
    C55     C    0.32778   0.11717   0.96174   1.000
    C56     C    0.34301   0.03934   0.91990   1.000
    C57     C    0.19258   0.00999   0.90886   1.000
    C58     C    0.13376   0.92633   0.87725   1.000
    C59     C    0.05500   0.67461   0.00000   1.000
    C60     C    0.17221   0.61716   0.03824   1.000
    C61     C    0.15698   0.53933   0.08008   1.000
    C62     C    0.30742   0.50999   0.09113   1.000
    C63     C    0.36626   0.42635   0.12273   1.000
    C64     C    0.44993   0.20999   0.25000   1.000
    C65     C    0.05003   0.70994   0.74998   1.000
    C66     C    0.55008   0.79002   0.74998   1.000
    C67     C    0.94996   0.29007   0.24999   1.000
    N68     N    0.09843   0.06987   0.55634   1.000
    N69     N    0.17719   0.13528   0.52360   1.000
    N70     N    0.40157   0.56987   0.44364   1.000
    N71     N    0.32280   0.63527   0.47639   1.000
    N72     N    0.90158   0.93015   0.05636   1.000
    N73     N    0.82282   0.86474   0.02361   1.000
    N74     N    0.59843   0.43015   0.94363   1.000
    N75     N    0.67720   0.36475   0.97638   1.000
    N76     N    0.90158   0.93015   0.44365   1.000
    N77     N    0.82281   0.86474   0.47639   1.000
    N78     N    0.59844   0.43015   0.55635   1.000
    N79     N    0.67721   0.36475   0.52359   1.000
    N80     N    0.09842   0.06987   0.94363   1.000
    N81     N    0.17719   0.13528   0.97638   1.000
    N82     N    0.40157   0.56987   0.05635   1.000
    N83     N    0.32280   0.63527   0.02360   1.000
    O84     O    0.58620   0.15557   0.50318   1.000
    O85     O    0.39268   0.24306   0.46708   1.000
    O86     O    0.98857   0.91290   0.61967   1.000
    O87     O    0.23476   0.87331   0.64711   1.000
    O88     O    0.39269   0.18924   0.31586   1.000
    O89     O    0.91380   0.65556   0.49679   1.000
    O90     O    0.10731   0.74305   0.53290   1.000
    O91     O    0.51145   0.41293   0.38031   1.000
    O92     O    0.26526   0.37332   0.35287   1.000
    O93     O    0.10730   0.68923   0.68412   1.000
    O94     O    0.41381   0.84445   0.00320   1.000
    O95     O    0.60731   0.75696   0.96707   1.000
    O96     O    0.01143   0.08713   0.11968   1.000
    O97     O    0.76524   0.12671   0.14712   1.000
    O98     O    0.60730   0.81079   0.81585   1.000
    O99     O    0.08619   0.34446   0.99679   1.000
    O100    O    0.89270   0.25697   0.03291   1.000
    O101    O    0.48856   0.58709   0.88030   1.000
    O102    O    0.73474   0.62670   0.85286   1.000
    O103    O    0.89270   0.31079   0.18413   1.000
    O104    O    0.41380   0.84445   0.49680   1.000
    O105    O    0.60732   0.75696   0.53290   1.000
    O106    O    0.01143   0.08713   0.38031   1.000
    O107    O    0.76524   0.12671   0.35287   1.000
    O108    O    0.60730   0.81079   0.68412   1.000
    O109    O    0.08620   0.34446   0.50319   1.000
    O110    O    0.89269   0.25697   0.46708   1.000
    O111    O    0.48856   0.58708   0.61967   1.000
    O112    O    0.73474   0.62670   0.64711   1.000
    O113    O    0.89270   0.31079   0.31586   1.000
    O114    O    0.58619   0.15558   0.99678   1.000
    O115    O    0.39269   0.24306   0.03291   1.000
    O116    O    0.98857   0.91289   0.88030   1.000
    O117    O    0.23476   0.87331   0.85286   1.000
    O118    O    0.39269   0.18924   0.18413   1.000
    O119    O    0.91381   0.65556   0.00319   1.000
    O120    O    0.10730   0.74305   0.96707   1.000
    O121    O    0.51145   0.41293   0.11968   1.000
    O122    O    0.26526   0.37332   0.14712   1.000
    O123    O    0.10730   0.68923   0.81585   1.000
    O124    O    0.57959   0.25528   0.24999   1.000
    O125    O    0.92042   0.75527   0.74998   1.000
    O126    O    0.42040   0.74475   0.74998   1.000
    O127    O    0.07958   0.24476   0.24999   1.000
loop_
    _geom_bond_atom_site_label_1
    _geom_bond_atom_site_label_2
    _geom_bond_distance
    _geom_bond_site_symmetry_2
    _ccdc_geom_bond_type
    C34    O94       1.25731      .   S
    C34    C35       1.49976      .   S
    C34    O95       1.27938  1_554   S
    C59    O119      1.25718  1_455   S
    C59    C60       1.49977      .   S
    C59    O120      1.27933  1_554   S
    O119   La7       2.65049  1_554   S
    O94    La2       2.65057  1_554   S
    N83    C60       1.35629      .   S
    N83    N82       1.34058      .   S
    N83    La2       2.81816  1_554   S
    N73    C35       1.35628      .   S
    N73    N72       1.34060      .   S
    N73    La7       2.81832  1_554   S
    O115   La3       2.54758      .   S
    O115   C54       1.30272  1_554   S
    O100   La6       2.54757      .   S
    O100   C39       1.30271  1_554   S
    C60    C61       1.40535      .   S
    C35    C36       1.40535      .   S
    H23    N82       1.02101      .   S
    H13    N72       1.02101  1_455   S
    N82    C62       1.36923      .   S
    N72    C37       1.36924      .   S
    C61    C62       1.39048      .   S
    C61    H22       1.08231      .   S
    C36    C37       1.39048      .   S
    C36    H12       1.08232      .   S
    C37    C38       1.48671  1_565   S
    C62    C63       1.48641      .   S
    La6    O121      2.55145      .   S
    La6    O97       2.44516      .   S
    La6    O103      2.59585      .   S
    La6    O124      2.48788      .   S
    La6    N75       2.81817  1_554   S
    La6    O114      2.65058  1_554   S
    La3    O96       2.55117      .   S
    La3    O122      2.44519      .   S
    La3    O118      2.59593      .   S
    La3    O127      2.48788      .   S
    La3    N81       2.81831  1_554   S
    La3    O99       2.65048  1_554   S
    O96    C38       1.27392  1_455   S
    O121   C63       1.27393      .   S
    C38    O97       1.26728      .   S
    C63    O122      1.26726      .   S
    O103   C67       1.28967      .   S
    O118   C64       1.28968      .   S
    C67    O127      1.31944  1_655   S
    C67    O113      1.28968      .   S
    O124   C64       1.31953      .   S
    C64    O88       1.28968      .   S
    O113   La0       2.59587      .   S
    O88    La5       2.59596      .   S
    O107   C48       1.26728      .   S
    O107   La0       2.44519      .   S
    O92    C33       1.26727      .   S
    O92    La5       2.44519      .   S
    C48    O106      1.27392  1_655   S
    C48    C47       1.48671  1_545   S
    C33    O91       1.27393      .   S
    C33    C32       1.48640      .   S
    O91    La0       2.55146      .   S
    O106   La5       2.55124      .   S
    La0    O110      2.54758      .   S
    La0    O84       2.65023      .   S
    La0    N79       2.81786      .   S
    La5    O85       2.54756      .   S
    La5    O109      2.65016      .   S
    La5    N69       2.81804      .   S
    H10    C31       1.08230      .   S
    H16    C46       1.08232      .   S
    C47    C46       1.39049      .   S
    C47    N76       1.36923      .   S
    C32    C31       1.39049      .   S
    C32    N70       1.36923      .   S
    C31    C30       1.40535      .   S
    C46    C45       1.40536      .   S
    N70    H11       1.02100      .   S
    N70    N71       1.34059      .   S
    N76    H17       1.02101  1_655   S
    N76    N77       1.34059      .   S
    C30    N71       1.35629      .   S
    C30    C29       1.47783      .   S
    C45    N77       1.35629      .   S
    C45    C44       1.47785      .   S
    O85    C24       1.30272      .   S
    O110   C49       1.30272      .   S
    N77    La1       2.81795      .   S
    N71    La4       2.81777      .   S
    O89    C29       1.25606  1_655   S
    O89    La1       2.65019      .   S
    O104   C44       1.25617      .   S
    O104   La4       2.65025      .   S
    C44    O105      1.30273      .   S
    C29    O90       1.30272      .   S
    C49    O109      1.25605  1_655   S
    C49    C50       1.47783      .   S
    C24    O84       1.25616      .   S
    C24    C25       1.47784      .   S
    N79    C50       1.35629      .   S
    N79    N78       1.34059      .   S
    N69    C25       1.35628      .   S
    N69    N68       1.34059      .   S
    O105   La1       2.54757      .   S
    O90    La4       2.54757      .   S
    C25    C26       1.40537      .   S
    C50    C51       1.40537      .   S
    H9     N68       1.02099  1_655   S
    H19    N78       1.02101      .   S
    N68    C27       1.36925      .   S
    N78    C52       1.36923      .   S
    C26    C27       1.39050      .   S
    C26    H8        1.08230      .   S
    C51    C52       1.39049      .   S
    C51    H18       1.08229      .   S
    C27    C28       1.48671  1_545   S
    C52    C53       1.48640      .   S
    La4    O111      2.55151      .   S
    La4    O87       2.44518      .   S
    La4    O93       2.59586      .   S
    La4    O126      2.48786      .   S
    La1    O86       2.55126      .   S
    La1    O112      2.44518      .   S
    La1    O108      2.59602      .   S
    O86    C28       1.27394  1_655   S
    O111   C53       1.27393      .   S
    C53    O112      1.26727      .   S
    C28    O87       1.26727      .   S
    O108   C66       1.28968      .   S
    O93    C65       1.28967      .   S
    O126   C66       1.31955      .   S
    C65    O125      1.31943  1_455   S
    C65    O123      1.28968      .   S
    O125   La7       2.48788      .   S
    C66    O98       1.28968      .   S
    O98    La7       2.59598      .   S
    O123   La2       2.59584      .   S
    O117   C58       1.26728      .   S
    O117   La2       2.44516      .   S
    O102   C43       1.26728      .   S
    O102   La7       2.44518      .   S
    C58    O116      1.27392  1_455   S
    C58    C57       1.48671  1_565   S
    C43    O101      1.27392      .   S
    C43    C42       1.48641      .   S
    O101   La2       2.55146      .   S
    O116   La7       2.55118      .   S
    La2    O120      2.54757      .   S
    La7    O95       2.54757      .   S
    H14    C41       1.08230      .   S
    H20    C56       1.08230      .   S
    C42    C41       1.39049      .   S
    C42    N74       1.36923      .   S
    C57    C56       1.39048      .   S
    C57    N80       1.36925      .   S
    C41    C40       1.40536      .   S
    C56    C55       1.40537      .   S
    N74    H15       1.02100      .   S
    N74    N75       1.34060      .   S
    N80    H21       1.02099  1_455   S
    N80    N81       1.34060      .   S
    C55    N81       1.35627      .   S
    C55    C54       1.47808      .   S
    C40    N75       1.35628      .   S
    C40    C39       1.47805      .   S
    O114   C54       1.25607      .   S
    O99    C39       1.25595  1_455   S
    O85    La0       2.58857      .   S
    O88    La0       2.77435      .   S
    O90    La1       2.58843  1_455   S
    O93    La1       2.77424  1_455   S
    O95    La2       2.58858      .   S
    O98    La2       2.77435      .   S
    O100   La3       2.58845  1_655   S
    O103   La3       2.77428  1_655   S
    O105   La4       2.58855      .   S
    O108   La4       2.77435      .   S
    O110   La5       2.58843  1_655   S
    O113   La5       2.77424  1_655   S
    O115   La6       2.58858      .   S
    O118   La6       2.77439      .   S
    O120   La7       2.58844  1_455   S
    O123   La7       2.77425  1_455   S
    O124   La0       2.48789      .   S
    O125   La1       2.48788      .   S
    O126   La2       2.48788      .   S
    O127   La5       2.48788      .   S
