# CIF file generated by openbabel 2.4.90, see http://openbabel.sf.net
data_I
_chemical_name_common ''
_cell_length_a 23.679
_cell_length_b 14.304
_cell_length_c 17.532
_cell_angle_alpha 89.972
_cell_angle_beta 90.004
_cell_angle_gamma 90.006
_space_group_name_H-M_alt 'P 1'
_space_group_name_Hall 'P 1'
loop_
    _symmetry_equiv_pos_as_xyz
    x,y,z
loop_
    _atom_site_label
    _atom_site_type_symbol
    _atom_site_fract_x
    _atom_site_fract_y
    _atom_site_fract_z
    _atom_site_occupancy
    Cd0     Cd   0.50858   0.63821   0.01531   1.000
    Cd1     Cd   0.00854   0.36175   0.98471   1.000
    Cd2     Cd   0.50859   0.36176   0.98468   1.000
    Cd3     Cd   0.49102   0.86219   0.51571   1.000
    Cd4     Cd   0.99108   0.86228   0.51561   1.000
    Cd5     Cd   0.49096   0.13787   0.48434   1.000
    Cd6     Cd   0.99103   0.13776   0.48437   1.000
    Cd7     Cd   0.00854   0.63826   0.01526   1.000
