# CIF file generated by openbabel 2.4.90, see http://openbabel.sf.net
data_I
_chemical_name_common ''
_cell_length_a 23.679
_cell_length_b 14.304
_cell_length_c 17.532
_cell_angle_alpha 89.972
_cell_angle_beta 90.004
_cell_angle_gamma 90.006
_space_group_name_H-M_alt 'P 1'
_space_group_name_Hall 'P 1'
loop_
    _symmetry_equiv_pos_as_xyz
    x,y,z
loop_
    _atom_site_label
    _atom_site_type_symbol
    _atom_site_fract_x
    _atom_site_fract_y
    _atom_site_fract_z
    _atom_site_occupancy
    N0      N    0.75853   0.36899   0.98136   1.000
    N1      N    0.00804   0.45928   0.30118   1.000
    N2      N    0.25850   0.63075   0.01910   1.000
    N3      N    0.50859   0.45943   0.30119   1.000
    N4      N    0.00803   0.54074   0.69877   1.000
    N5      N    0.50861   0.54070   0.69886   1.000
    N6      N    0.49100   0.04085   0.80102   1.000
    N7      N    0.99143   0.04083   0.80104   1.000
    N8      N    0.24105   0.86936   0.51924   1.000
    N9      N    0.74102   0.86936   0.51906   1.000
    N10     N    0.75852   0.63101   0.01864   1.000
    N11     N    0.24094   0.13057   0.48070   1.000
    N12     N    0.74100   0.13064   0.48097   1.000
    N13     N    0.25851   0.36926   0.98087   1.000
    N14     N    0.99144   0.95917   0.19893   1.000
    N15     N    0.49132   0.95917   0.19898   1.000
    Zr16    Zr   0.49102   0.86219   0.51571   1.000
    O17     O    0.56606   0.86498   0.51698   1.000
    O18     O    0.49143   0.88414   0.41999   1.000
    O19     O    0.49077   0.92458   0.59633   1.000
    O20     O    0.41599   0.86502   0.51665   1.000
    Zr21    Zr   0.99103   0.13776   0.48437   1.000
    O22     O    0.99102   0.07539   0.40371   1.000
    O23     O    0.99160   0.11581   0.58006   1.000
    O24     O    0.06604   0.13495   0.48298   1.000
    O25     O    0.91598   0.13493   0.48347   1.000
    Zr26    Zr   0.00854   0.63826   0.01526   1.000
    O27     O    0.93348   0.63545   0.01653   1.000
    O28     O    0.00797   0.61592   0.91967   1.000
    O29     O    0.08356   0.63531   0.01632   1.000
    O30     O    0.00857   0.57595   0.09613   1.000
    Zr31    Zr   0.50858   0.63821   0.01531   1.000
    O32     O    0.58360   0.63538   0.01617   1.000
    O33     O    0.43350   0.63531   0.01674   1.000
    O34     O    0.50887   0.57595   0.09616   1.000
    O35     O    0.50800   0.61586   0.91973   1.000
    Zr36    Zr   0.00854   0.36175   0.98471   1.000
    O37     O    0.00857   0.42406   0.90384   1.000
    O38     O    0.00798   0.38409   0.08030   1.000
    O39     O    0.08357   0.36471   0.98365   1.000
    O40     O    0.93349   0.36455   0.98345   1.000
    Zr41    Zr   0.50859   0.36176   0.98468   1.000
    O42     O    0.50800   0.38416   0.08027   1.000
    O43     O    0.50888   0.42406   0.90385   1.000
    O44     O    0.43352   0.36468   0.98324   1.000
    O45     O    0.58361   0.36460   0.98382   1.000
    Zr46    Zr   0.99108   0.86228   0.51561   1.000
    O47     O    0.91601   0.86509   0.51652   1.000
    O48     O    0.99105   0.92463   0.59627   1.000
    O49     O    0.99163   0.88421   0.41991   1.000
    O50     O    0.06611   0.86506   0.51699   1.000
    Zr51    Zr   0.49096   0.13787   0.48434   1.000
    O52     O    0.56602   0.13504   0.48307   1.000
    O53     O    0.49110   0.07547   0.40371   1.000
    O54     O    0.49133   0.11589   0.58003   1.000
    O55     O    0.41591   0.13497   0.48336   1.000
    O56     O    0.49593   0.76549   0.56918   1.000
    O57     O    0.99549   0.23449   0.43092   1.000
    O58     O    0.50379   0.73487   0.06883   1.000
    O59     O    0.00379   0.26512   0.93119   1.000
    O60     O    0.50371   0.26512   0.93116   1.000
    O61     O    0.49591   0.23464   0.43091   1.000
    O62     O    0.00379   0.73489   0.06878   1.000
    O63     O    0.99552   0.76553   0.56905   1.000
loop_
    _geom_bond_atom_site_label_1
    _geom_bond_atom_site_label_2
    _geom_bond_distance
    _geom_bond_site_symmetry_2
    _ccdc_geom_bond_type
    Zr16   O17       1.77753      .   S
    N9     O17       4.14342      .   S
    Zr16   O18       1.70717      .   S
    N15    O18       4.02017      .   S
    Zr16   O19       1.67195      .   S
    N6     O19       3.95599  1_545   S
    Zr16   O20       1.77715      .   S
    N8     O20       4.14300      .   S
    Zr21   O22       1.67242      .   S
    N14    O22       3.95716  1_565   S
    Zr21   O23       1.70673      .   S
    N7     O23       4.01941      .   S
    Zr21   O24       1.77695  1_655   S
    N11    O24       4.14213      .   S
    Zr21   O25       1.77764      .   S
    N12    O25       4.14397      .   S
    Zr26   O27       1.77781  1_455   S
    N10    O27       4.14372      .   S
    Zr26   O28       1.70633  1_554   S
    N4     O28       4.01974      .   S
    Zr26   O29       1.77714      .   S
    N2     O29       4.14300      .   S
    Zr26   O30       1.67430      .   S
    N1     O30       3.96272      .   S
    Zr31   O32       1.77696      .   S
    N10    O32       4.14257      .   S
    Zr31   O33       1.77833      .   S
    N2     O33       4.14473      .   S
    Zr31   O34       1.67370      .   S
    N3     O34       3.96137      .   S
    Zr31   O35       1.70622  1_554   S
    N5     O35       4.01922      .   S
    Zr36   O37       1.67436      .   S
    N4     O37       3.96294      .   S
    Zr36   O38       1.70629  1_556   S
    N1     O38       4.01952      .   S
    Zr36   O39       1.77719      .   S
    N13    O39       4.14314      .   S
    Zr36   O40       1.77776  1_455   S
    N0     O40       4.14360      .   S
    Zr41   O42       1.70647  1_556   S
    N3     O42       4.02049      .   S
    Zr41   O43       1.67374      .   S
    N5     O43       3.96147      .   S
    Zr41   O44       1.77837      .   S
    N13    O44       4.14476      .   S
    Zr41   O45       1.77691      .   S
    N0     O45       4.14253      .   S
    Zr46   O47       1.77795      .   S
    N9     O47       4.14449      .   S
    Zr46   O48       1.67230      .   S
    N7     O48       3.95693  1_545   S
    Zr46   O49       1.70671      .   S
    N14    O49       4.01947      .   S
    Zr46   O50       1.77740  1_655   S
    N8     O50       4.14301      .   S
    Zr51   O52       1.77791      .   S
    N12    O52       4.14404      .   S
    Zr51   O53       1.67225      .   S
    N15    O53       3.95687  1_565   S
    Zr51   O54       1.70670      .   S
    N6     O54       4.01984      .   S
    Zr51   O55       1.77766      .   S
    N11    O55       4.14374      .   S
    Zr16   O56       1.67457      .   S
    N5     O56       3.94855      .   S
    Zr21   O57       1.67414      .   S
    N1     O57       3.94879  1_455   S
    Zr31   O58       1.67510      .   S
    N15    O58       3.94897      .   S
    Zr36   O59       1.67477      .   S
    N7     O59       3.94854  1_655   S
    N6     O60       3.94902      .   S
    Zr41   O60       1.67508      .   S
    N3     O61       3.94903      .   S
    Zr51   O61       1.67501      .   S
    Zr26   O62       1.67473      .   S
    N14    O62       3.94858  1_655   S
    N4     O63       3.94874  1_455   S
    Zr46   O63       1.67410      .   S
