# CIF file generated by openbabel 2.4.90, see http://openbabel.sf.net
data_I
_chemical_name_common ''
_cell_length_a 23.679
_cell_length_b 14.304
_cell_length_c 17.532
_cell_angle_alpha 89.972
_cell_angle_beta 90.004
_cell_angle_gamma 90.006
_space_group_name_H-M_alt 'P 1'
_space_group_name_Hall 'P 1'
loop_
    _symmetry_equiv_pos_as_xyz
    x,y,z
loop_
    _atom_site_label
    _atom_site_type_symbol
    _atom_site_fract_x
    _atom_site_fract_y
    _atom_site_fract_z
    _atom_site_occupancy
    N0      N    0.75853   0.36899   0.98136   1.000
    N1      N    0.00804   0.45928   0.30118   1.000
    N2      N    0.25850   0.63075   0.01910   1.000
    N3      N    0.50859   0.45943   0.30119   1.000
    N4      N    0.00803   0.54074   0.69877   1.000
    N5      N    0.50861   0.54070   0.69886   1.000
    N6      N    0.49100   0.04085   0.80102   1.000
    N7      N    0.99143   0.04083   0.80104   1.000
    N8      N    0.24105   0.86936   0.51924   1.000
    N9      N    0.74102   0.86936   0.51906   1.000
    N10     N    0.75852   0.63101   0.01864   1.000
    N11     N    0.24094   0.13057   0.48070   1.000
    N12     N    0.74100   0.13064   0.48097   1.000
    N13     N    0.25851   0.36926   0.98087   1.000
    N14     N    0.99144   0.95917   0.19893   1.000
    N15     N    0.49132   0.95917   0.19898   1.000
    Zr16    Zr   0.49102   0.86219   0.51571   1.000
    O17     O    0.56606   0.86498   0.51698   1.000
    O18     O    0.49485   0.77105   0.57558   1.000
    O19     O    0.49702   0.75994   0.56278   1.000
    O20     O    0.49143   0.88414   0.41999   1.000
    O21     O    0.49077   0.92458   0.59633   1.000
    O22     O    0.41599   0.86502   0.51665   1.000
    Zr23    Zr   0.99103   0.13776   0.48437   1.000
    O24     O    0.99102   0.07539   0.40371   1.000
    O25     O    0.99160   0.11581   0.58006   1.000
    O26     O    0.06604   0.13495   0.48298   1.000
    O27     O    0.91598   0.13493   0.48347   1.000
    O28     O    0.99640   0.24003   0.43728   1.000
    O29     O    0.99458   0.22896   0.42455   1.000
    Zr30    Zr   0.00854   0.63826   0.01526   1.000
    O31     O    0.93348   0.63545   0.01653   1.000
    O32     O    0.00284   0.74055   0.06239   1.000
    O33     O    0.00797   0.61592   0.91967   1.000
    O34     O    0.00475   0.72923   0.07517   1.000
    O35     O    0.08356   0.63531   0.01632   1.000
    O36     O    0.00857   0.57595   0.09613   1.000
    Zr37    Zr   0.50858   0.63821   0.01531   1.000
    O38     O    0.58360   0.63538   0.01617   1.000
    O39     O    0.43350   0.63531   0.01674   1.000
    O40     O    0.50270   0.74050   0.06247   1.000
    O41     O    0.50487   0.72923   0.07519   1.000
    O42     O    0.50887   0.57595   0.09616   1.000
    O43     O    0.50800   0.61586   0.91973   1.000
    Zr44    Zr   0.00854   0.36175   0.98471   1.000
    O45     O    0.00284   0.25946   0.93757   1.000
    O46     O    0.00475   0.27078   0.92481   1.000
    O47     O    0.00857   0.42406   0.90384   1.000
    O48     O    0.00798   0.38409   0.08030   1.000
    O49     O    0.08357   0.36471   0.98365   1.000
    O50     O    0.93349   0.36455   0.98345   1.000
    Zr51    Zr   0.50859   0.36176   0.98468   1.000
    O52     O    0.50800   0.38416   0.08027   1.000
    O53     O    0.50480   0.27075   0.92479   1.000
    O54     O    0.50263   0.25949   0.93752   1.000
    O55     O    0.50888   0.42406   0.90385   1.000
    O56     O    0.43352   0.36468   0.98324   1.000
    O57     O    0.58361   0.36460   0.98382   1.000
    Zr58    Zr   0.99108   0.86228   0.51561   1.000
    O59     O    0.91601   0.86509   0.51652   1.000
    O60     O    0.99105   0.92463   0.59627   1.000
    O61     O    0.99163   0.88421   0.41991   1.000
    O62     O    0.99643   0.76000   0.56269   1.000
    O63     O    0.99461   0.77107   0.57542   1.000
    O64     O    0.06611   0.86506   0.51699   1.000
    Zr65    Zr   0.49096   0.13787   0.48434   1.000
    O66     O    0.56602   0.13504   0.48307   1.000
    O67     O    0.49110   0.07547   0.40371   1.000
    O68     O    0.49725   0.24013   0.43725   1.000
    O69     O    0.49133   0.11589   0.58003   1.000
    O70     O    0.49456   0.22914   0.42457   1.000
    O71     O    0.41591   0.13497   0.48336   1.000
loop_
    _geom_bond_atom_site_label_1
    _geom_bond_atom_site_label_2
    _geom_bond_distance
    _geom_bond_site_symmetry_2
    _ccdc_geom_bond_type
    Zr16   O17       1.77753      .   S
    N9     O17       4.14342      .   S
    Zr16   O18       1.67574      .   S
    N5     O18       3.95315      .   S
    Zr16   O19       1.68505      .   S
    N5     O19       3.94890      .   S
    Zr16   O20       1.70717      .   S
    N15    O20       4.02017      .   S
    Zr16   O21       1.67195      .   S
    N6     O21       3.95599  1_545   S
    Zr16   O22       1.77715      .   S
    N8     O22       4.14300      .   S
    Zr23   O24       1.67242      .   S
    N14    O24       3.95716  1_565   S
    Zr23   O25       1.70673      .   S
    N7     O25       4.01941      .   S
    Zr23   O26       1.77695  1_655   S
    N11    O26       4.14213      .   S
    Zr23   O27       1.77764      .   S
    N12    O27       4.14397      .   S
    Zr23   O28       1.68419      .   S
    N1     O28       3.94939  1_455   S
    Zr23   O29       1.67551      .   S
    N1     O29       3.95306  1_455   S
    Zr30   O31       1.77781  1_455   S
    N10    O31       4.14372      .   S
    Zr30   O32       1.68613      .   S
    N14    O32       3.94832  1_655   S
    Zr30   O33       1.70633  1_554   S
    N4     O33       4.01974      .   S
    Zr30   O34       1.67499      .   S
    N14    O34       3.95380  1_655   S
    Zr30   O35       1.77714      .   S
    N2     O35       4.14300      .   S
    Zr30   O36       1.67430      .   S
    N1     O36       3.96272      .   S
    Zr37   O38       1.77696      .   S
    N10    O38       4.14257      .   S
    Zr37   O39       1.77833      .   S
    N2     O39       4.14473      .   S
    Zr37   O40       1.68663      .   S
    N15    O40       3.94853      .   S
    Zr37   O41       1.67521      .   S
    N15    O41       3.95436      .   S
    Zr37   O42       1.67370      .   S
    N3     O42       3.96137      .   S
    Zr37   O43       1.70622  1_554   S
    N5     O43       4.01922      .   S
    Zr44   O45       1.68622      .   S
    N7     O45       3.94821  1_655   S
    Zr44   O46       1.67497      .   S
    N7     O46       3.95382  1_655   S
    Zr44   O47       1.67436      .   S
    N4     O47       3.96294      .   S
    Zr44   O48       1.70629  1_556   S
    N1     O48       4.01952      .   S
    Zr44   O49       1.77719      .   S
    N13    O49       4.14314      .   S
    Zr44   O50       1.77776  1_455   S
    N0     O50       4.14360      .   S
    Zr51   O52       1.70647  1_556   S
    N3     O52       4.02049      .   S
    Zr51   O53       1.67521      .   S
    N6     O53       3.95440      .   S
    Zr51   O54       1.68660      .   S
    N6     O54       3.94859      .   S
    Zr51   O55       1.67374      .   S
    N5     O55       3.96147      .   S
    Zr51   O56       1.77837      .   S
    N13    O56       4.14476      .   S
    Zr51   O57       1.77691      .   S
    N0     O57       4.14253      .   S
    Zr58   O59       1.77795      .   S
    N9     O59       4.14449      .   S
    Zr58   O60       1.67230      .   S
    N7     O60       3.95693  1_545   S
    Zr58   O61       1.70671      .   S
    N14    O61       4.01947      .   S
    Zr58   O62       1.68417      .   S
    N4     O62       3.94934  1_455   S
    Zr58   O63       1.67548      .   S
    N4     O63       3.95300  1_455   S
    Zr58   O64       1.77740  1_655   S
    N8     O64       4.14301      .   S
    Zr65   O66       1.77791      .   S
    N12    O66       4.14404      .   S
    Zr65   O67       1.67225      .   S
    N15    O67       3.95687  1_565   S
    Zr65   O68       1.68592      .   S
    N3     O68       3.94902      .   S
    Zr65   O69       1.70670      .   S
    N6     O69       4.01984      .   S
    Zr65   O70       1.67575      .   S
    N3     O70       3.95400      .   S
    Zr65   O71       1.77766      .   S
    N11    O71       4.14374      .   S
