# CIF file generated by openbabel 2.4.90, see http://openbabel.sf.net
data_I
_chemical_name_common ''
_cell_length_a 23.679
_cell_length_b 14.304
_cell_length_c 17.532
_cell_angle_alpha 89.972
_cell_angle_beta 90.004
_cell_angle_gamma 90.006
_space_group_name_H-M_alt 'P 1'
_space_group_name_Hall 'P 1'
loop_
    _symmetry_equiv_pos_as_xyz
    x,y,z
loop_
    _atom_site_label
    _atom_site_type_symbol
    _atom_site_fract_x
    _atom_site_fract_y
    _atom_site_fract_z
    _atom_site_occupancy
    Zr0     Zr   0.00854   0.63826   0.01526   1.000
    Zr1     Zr   0.50858   0.63821   0.01531   1.000
    Zr2     Zr   0.00854   0.36175   0.98471   1.000
    Zr3     Zr   0.50859   0.36176   0.98468   1.000
    Zr4     Zr   0.49102   0.86219   0.51571   1.000
    Zr5     Zr   0.99108   0.86228   0.51561   1.000
    Zr6     Zr   0.49096   0.13787   0.48434   1.000
    Zr7     Zr   0.99103   0.13776   0.48437   1.000
    N8      N    0.75853   0.36899   0.98136   1.000
    O9      O    0.65863   0.36744   0.98296   1.000
    O10     O    0.85844   0.36735   0.98219   1.000
    N11     N    0.00804   0.45928   0.30118   1.000
    O12     O    0.00742   0.40643   0.17589   1.000
    O13     O    0.00178   0.34230   0.39019   1.000
    O14     O    0.99813   0.32015   0.36473   1.000
    O15     O    0.00860   0.51363   0.17699   1.000
    N16     N    0.25850   0.63075   0.01910   1.000
    O17     O    0.35843   0.63240   0.01816   1.000
    O18     O    0.15859   0.63235   0.01737   1.000
    N19     N    0.50859   0.45943   0.30119   1.000
    O20     O    0.50741   0.40656   0.17586   1.000
    O21     O    0.50355   0.34240   0.39016   1.000
    O22     O    0.49816   0.32040   0.36480   1.000
    O23     O    0.50916   0.51369   0.17701   1.000
    N24     N    0.00803   0.54074   0.69877   1.000
    O25     O    0.00859   0.48638   0.82297   1.000
    O26     O    0.00741   0.59358   0.82407   1.000
    O27     O    0.00178   0.65772   0.60976   1.000
    O28     O    0.99815   0.67986   0.63523   1.000
    N29     N    0.50861   0.54070   0.69886   1.000
    O30     O    0.50918   0.48637   0.82301   1.000
    O31     O    0.50742   0.59350   0.82414   1.000
    O32     O    0.50302   0.65769   0.60986   1.000
    O33     O    0.49868   0.67991   0.63545   1.000
    N34     N    0.49100   0.04085   0.80102   1.000
    O35     O    0.49053   0.98697   0.67695   1.000
    O36     O    0.49170   0.09392   0.67572   1.000
    O37     O    0.49667   0.15722   0.89036   1.000
    O38     O    0.50101   0.17974   0.86491   1.000
    N39     N    0.99143   0.04083   0.80104   1.000
    O40     O    0.99102   0.98698   0.67693   1.000
    O41     O    0.99218   0.09387   0.67576   1.000
    O42     O    0.99713   0.15717   0.89042   1.000
    O43     O    0.00096   0.17981   0.86490   1.000
    N44     N    0.24105   0.86936   0.51924   1.000
    O45     O    0.34096   0.86784   0.51759   1.000
    O46     O    0.14115   0.86784   0.51837   1.000
    N47     N    0.74102   0.86936   0.51906   1.000
    O48     O    0.84095   0.86791   0.51742   1.000
    O49     O    0.64110   0.86777   0.51825   1.000
    N50     N    0.75852   0.63101   0.01864   1.000
    O51     O    0.65862   0.63255   0.01704   1.000
    O52     O    0.85843   0.63264   0.01780   1.000
    N53     N    0.24094   0.13057   0.48070   1.000
    O54     O    0.34086   0.13206   0.48237   1.000
    O55     O    0.14106   0.13214   0.48160   1.000
    N56     N    0.74100   0.13064   0.48097   1.000
    O57     O    0.84093   0.13211   0.48258   1.000
    O58     O    0.64107   0.13220   0.48179   1.000
    N59     N    0.25851   0.36926   0.98087   1.000
    O60     O    0.15860   0.36766   0.98259   1.000
    O61     O    0.35844   0.36759   0.98181   1.000
    N62     N    0.99144   0.95917   0.19893   1.000
    O63     O    0.99101   0.01303   0.32304   1.000
    O64     O    0.99219   0.90614   0.32422   1.000
    O65     O    0.99713   0.84283   0.10953   1.000
    O66     O    0.00096   0.82019   0.13507   1.000
    N67     N    0.49132   0.95917   0.19898   1.000
    O68     O    0.49123   0.01307   0.32307   1.000
    O69     O    0.49185   0.90610   0.32427   1.000
    O70     O    0.49683   0.84278   0.10963   1.000
    O71     O    0.50117   0.82025   0.13508   1.000
loop_
    _geom_bond_atom_site_label_1
    _geom_bond_atom_site_label_2
    _geom_bond_distance
    _geom_bond_site_symmetry_2
    _ccdc_geom_bond_type
    N8     O9        2.36571      .   S
    Zr3    O9        3.55383      .   S
    N8     O10       2.36594      .   S
    Zr2    O10       3.55553  1_455   S
    N11    O12       2.32338      .   S
    Zr2    O12       3.41257  1_556   S
    N11    O13       2.29232      .   S
    Zr7    O13       3.36838  1_655   S
    N11    O14       2.29224  1_455   S
    Zr7    O14       3.35103      .   S
    N11    O15       2.31155      .   S
    Zr0    O15       3.34860      .   S
    N16    O17       2.36651      .   S
    Zr1    O17       3.55666      .   S
    N16    O18       2.36596      .   S
    Zr0    O18       3.55428      .   S
    N19    O20       2.32422      .   S
    Zr3    O20       3.41295  1_556   S
    N19    O21       2.29070      .   S
    Zr6    O21       3.37183      .   S
    N19    O22       2.29296      .   S
    Zr6    O22       3.35150      .   S
    N19    O23       2.31089      .   S
    Zr1    O23       3.34741      .   S
    N24    O25       2.31170      .   S
    Zr2    O25       3.34873      .   S
    N24    O26       2.32355      .   S
    Zr0    O26       3.41267  1_554   S
    N24    O27       2.29232      .   S
    Zr5    O27       3.36834  1_655   S
    N24    O28       2.29222  1_455   S
    Zr5    O28       3.35096      .   S
    N29    O30       2.31092      .   S
    Zr3    O30       3.34748      .   S
    N29    O31       2.32319      .   S
    Zr1    O31       3.41245  1_554   S
    N29    O32       2.29126      .   S
    Zr4    O32       3.37010      .   S
    N29    O33       2.29225      .   S
    Zr4    O33       3.35147      .   S
    N34    O35       2.30807  1_545   S
    Zr4    O35       3.34390      .   S
    N34    O36       2.32392      .   S
    Zr6    O36       3.41340      .   S
    N34    O37       2.29019      .   S
    Zr3    O37       3.37320      .   S
    N34    O38       2.29353      .   S
    Zr3    O38       3.35042      .   S
    N39    O40       2.30859  1_545   S
    Zr5    O40       3.34459      .   S
    N39    O41       2.32353      .   S
    Zr7    O41       3.41345      .   S
    N39    O42       2.29025      .   S
    Zr2    O42       3.37243  1_455   S
    N39    O43       2.29308  1_655   S
    Zr2    O43       3.34994      .   S
    N44    O45       2.36595      .   S
    Zr4    O45       3.55429      .   S
    N44    O46       2.36573      .   S
    Zr5    O46       3.55480  1_655   S
    N47    O48       2.36665      .   S
    Zr5    O48       3.55589      .   S
    N47    O49       2.36600      .   S
    Zr4    O49       3.55505      .   S
    N50    O51       2.36571      .   S
    Zr1    O51       3.55392      .   S
    N50    O52       2.36601      .   S
    Zr0    O52       3.55561  1_455   S
    N53    O54       2.36619      .   S
    Zr6    O54       3.55532      .   S
    N53    O55       2.36529      .   S
    Zr7    O55       3.55391  1_655   S
    N56    O57       2.36643      .   S
    Zr7    O57       3.55528      .   S
    N56    O58       2.36624      .   S
    Zr6    O58       3.55583      .   S
    N59    O60       2.36605      .   S
    Zr2    O60       3.55438      .   S
    N59    O61       2.36651      .   S
    Zr3    O61       3.55674      .   S
    N62    O63       2.30871  1_565   S
    Zr7    O63       3.34484      .   S
    N62    O64       2.32360      .   S
    Zr5    O64       3.41342      .   S
    N62    O65       2.29050      .   S
    Zr0    O65       3.37226  1_455   S
    N62    O66       2.29305  1_655   S
    Zr0    O66       3.34999      .   S
    N67    O68       2.30859  1_565   S
    Zr6    O68       3.34450      .   S
    N67    O69       2.32380      .   S
    Zr4    O69       3.41434      .   S
    N67    O70       2.29012      .   S
    Zr1    O70       3.37327      .   S
    N67    O71       2.29344      .   S
    Zr1    O71       3.35043      .   S
