# CIF file generated by openbabel 2.4.90, see http://openbabel.sf.net
data_I
_chemical_name_common ''
_cell_length_a 14.788
_cell_length_b 18.115
_cell_length_c 19.486
_cell_angle_alpha 90.005
_cell_angle_beta 89.99
_cell_angle_gamma 90.07
_space_group_name_H-M_alt 'P 1'
_space_group_name_Hall 'P 1'
loop_
    _symmetry_equiv_pos_as_xyz
    x,y,z
loop_
    _atom_site_label
    _atom_site_type_symbol
    _atom_site_fract_x
    _atom_site_fract_y
    _atom_site_fract_z
    _atom_site_occupancy
    H0      H    0.05461   0.14465   0.68989   1.000
    H1      H    0.05459   0.64467   0.68991   1.000
    H2      H    0.55460   0.14466   0.68994   1.000
    H3      H    0.55462   0.64466   0.68990   1.000
    H4      H    0.05398   0.10732   0.81426   1.000
    H5      H    0.05393   0.60734   0.81428   1.000
    H6      H    0.55398   0.10733   0.81430   1.000
    H7      H    0.55398   0.60735   0.81427   1.000
    H8      H    0.34416   0.11531   0.81710   1.000
    H9      H    0.34411   0.61530   0.81716   1.000
    H10     H    0.84416   0.11530   0.81714   1.000
    H11     H    0.84417   0.61531   0.81712   1.000
    H12     H    0.34480   0.15267   0.69276   1.000
    H13     H    0.34478   0.65268   0.69281   1.000
    H14     H    0.84479   0.15268   0.69279   1.000
    H15     H    0.84482   0.65266   0.69277   1.000
    H16     H    0.30472   0.35529   0.31025   1.000
    H17     H    0.30467   0.85529   0.31026   1.000
    H18     H    0.80466   0.35527   0.31025   1.000
    H19     H    0.80474   0.85531   0.31024   1.000
    H20     H    0.30390   0.39262   0.18588   1.000
    H21     H    0.30386   0.89261   0.18580   1.000
    H22     H    0.80384   0.39260   0.18588   1.000
    H23     H    0.80394   0.89263   0.18587   1.000
    H24     H    0.09399   0.38480   0.18262   1.000
    H25     H    0.09409   0.88479   0.18262   1.000
    H26     H    0.59406   0.38479   0.18260   1.000
    H27     H    0.59402   0.88480   0.18262   1.000
    H28     H    0.09481   0.34743   0.30697   1.000
    H29     H    0.09489   0.84741   0.30696   1.000
    H30     H    0.59489   0.34740   0.30694   1.000
    H31     H    0.59484   0.84743   0.30696   1.000
    H32     H    0.05471   0.10539   0.18985   1.000
    H33     H    0.05474   0.60540   0.18994   1.000
    H34     H    0.55473   0.10536   0.18992   1.000
    H35     H    0.55472   0.60539   0.18990   1.000
    H36     H    0.05413   0.14272   0.31420   1.000
    H37     H    0.05423   0.64274   0.31431   1.000
    H38     H    0.55418   0.14270   0.31400   1.000
    H39     H    0.55420   0.64271   0.31420   1.000
    H40     H    0.34429   0.13469   0.31715   1.000
    H41     H    0.34439   0.63470   0.31715   1.000
    H42     H    0.84433   0.13470   0.31718   1.000
    H43     H    0.84436   0.63469   0.31713   1.000
    H44     H    0.34488   0.09732   0.19280   1.000
    H45     H    0.34490   0.59731   0.19279   1.000
    H46     H    0.84489   0.09732   0.19280   1.000
    H47     H    0.84489   0.59733   0.19277   1.000
    H48     H    0.30460   0.39463   0.81000   1.000
    H49     H    0.30469   0.89459   0.80995   1.000
    H50     H    0.80468   0.39461   0.80996   1.000
    H51     H    0.80463   0.89461   0.80000   1.000
    H52     H    0.30406   0.35730   0.68564   1.000
    H53     H    0.30428   0.85726   0.68558   1.000
    H54     H    0.80425   0.35727   0.68559   1.000
    H55     H    0.80414   0.85728   0.68562   1.000
    H56     H    0.09442   0.36537   0.68290   1.000
    H57     H    0.09431   0.86537   0.68286   1.000
    H58     H    0.59424   0.36535   0.68282   1.000
    H59     H    0.59447   0.86538   0.68292   1.000
    H60     H    0.09486   0.40275   0.80726   1.000
    H61     H    0.09480   0.90274   0.80722   1.000
    H62     H    0.59479   0.40273   0.80717   1.000
    H63     H    0.59488   0.90276   0.80728   1.000
    C64     C    0.20023   0.17397   0.61076   1.000
    C65     C    0.20023   0.67402   0.61080   1.000
    C66     C    0.70022   0.17402   0.61082   1.000
    C67     C    0.70025   0.67398   0.61077   1.000
    C68     C    0.94978   0.90038   0.81560   1.000
    C69     C    0.36749   0.38797   0.78161   1.000
    C70     C    0.36761   0.88795   0.78158   1.000
    C71     C    0.86760   0.38795   0.78159   1.000
    C72     C    0.19977   0.15036   0.68424   1.000
    C73     C    0.19975   0.65038   0.68428   1.000
    C74     C    0.69976   0.15038   0.68420   1.000
    C75     C    0.69978   0.65036   0.68425   1.000
    C76     C    0.11748   0.13797   0.71800   1.000
    C77     C    0.11745   0.63799   0.71833   1.000
    C78     C    0.61747   0.13798   0.71834   1.000
    C79     C    0.61749   0.63799   0.71830   1.000
    C80     C    0.11710   0.11765   0.78710   1.000
    C81     C    0.11706   0.61767   0.78713   1.000
    C82     C    0.61710   0.11766   0.78714   1.000
    C83     C    0.61711   0.61767   0.78711   1.000
    C84     C    0.19899   0.10965   0.82275   1.000
    C85     C    0.19894   0.60966   0.82279   1.000
    C86     C    0.69899   0.10965   0.82279   1.000
    C87     C    0.69899   0.60967   0.82270   1.000
    C88     C    0.28129   0.12209   0.78872   1.000
    C89     C    0.28125   0.62210   0.78877   1.000
    C90     C    0.78129   0.12209   0.78875   1.000
    C91     C    0.78130   0.62210   0.78873   1.000
    C92     C    0.28165   0.14243   0.71992   1.000
    C93     C    0.28163   0.64244   0.71990   1.000
    C94     C    0.78165   0.14243   0.71995   1.000
    C95     C    0.78167   0.64243   0.71993   1.000
    C96     C    0.19852   0.08517   0.89597   1.000
    C97     C    0.19846   0.58518   0.89601   1.000
    C98     C    0.69853   0.08517   0.89601   1.000
    C99     C    0.69853   0.58518   0.89598   1.000
    O100    O    0.02436   0.42514   0.07461   1.000
    O101    O    0.02446   0.92515   0.07460   1.000
    O102    O    0.52441   0.42514   0.07458   1.000
    O103    O    0.52438   0.92515   0.07461   1.000
    C104    C    0.45045   0.32600   0.38910   1.000
    C105    C    0.45039   0.82603   0.38916   1.000
    C106    C    0.95038   0.32601   0.38910   1.000
    C107    C    0.95045   0.82602   0.38915   1.000
    C108    C    0.44988   0.34964   0.31567   1.000
    C109    C    0.44984   0.84966   0.31569   1.000
    C110    C    0.94982   0.34964   0.31560   1.000
    C111    C    0.94990   0.84966   0.31568   1.000
    C112    C    0.36754   0.36200   0.28175   1.000
    C113    C    0.36750   0.86200   0.28176   1.000
    C114    C    0.86748   0.36199   0.28176   1.000
    C115    C    0.86757   0.86201   0.28175   1.000
    C116    C    0.36705   0.38232   0.21294   1.000
    C117    C    0.36701   0.88232   0.21295   1.000
    C118    C    0.86700   0.38230   0.21295   1.000
    C119    C    0.86709   0.88233   0.21295   1.000
    C120    C    0.44888   0.39037   0.17717   1.000
    C121    C    0.44884   0.89037   0.17718   1.000
    C122    C    0.94883   0.39036   0.17718   1.000
    C123    C    0.94892   0.89037   0.17718   1.000
    C124    C    0.03116   0.37797   0.21100   1.000
    C125    C    0.03125   0.87797   0.21109   1.000
    C126    C    0.53123   0.37796   0.21100   1.000
    C127    C    0.53119   0.87798   0.21109   1.000
    C128    C    0.03163   0.35763   0.27900   1.000
    C129    C    0.03172   0.85763   0.27989   1.000
    C130    C    0.53171   0.35762   0.27987   1.000
    C131    C    0.53167   0.85764   0.27900   1.000
    C132    C    0.44832   0.41484   0.10395   1.000
    C133    C    0.44829   0.91484   0.10396   1.000
    C134    C    0.94828   0.41483   0.10396   1.000
    C135    C    0.94838   0.91485   0.10396   1.000
    C136    C    0.20030   0.07604   0.11077   1.000
    C137    C    0.20030   0.57603   0.11081   1.000
    C138    C    0.70031   0.07601   0.11082   1.000
    C139    C    0.70029   0.57604   0.11078   1.000
    C140    C    0.19986   0.09965   0.18425   1.000
    C141    C    0.19988   0.59965   0.18429   1.000
    C142    C    0.69987   0.09964   0.18400   1.000
    C143    C    0.69987   0.59966   0.18426   1.000
    C144    C    0.11759   0.11206   0.21827   1.000
    C145    C    0.11763   0.61207   0.21834   1.000
    C146    C    0.61761   0.11204   0.21833   1.000
    C147    C    0.61761   0.61206   0.21831   1.000
    C148    C    0.11724   0.13237   0.28708   1.000
    C149    C    0.11732   0.63239   0.28715   1.000
    C150    C    0.61727   0.13236   0.28714   1.000
    C151    C    0.61729   0.63238   0.28712   1.000
    C152    C    0.19913   0.14037   0.32275   1.000
    C153    C    0.19925   0.64039   0.32280   1.000
    C154    C    0.69918   0.14036   0.32280   1.000
    C155    C    0.69921   0.64036   0.32277   1.000
    C156    C    0.28141   0.12791   0.28875   1.000
    C157    C    0.28150   0.62792   0.28876   1.000
    C158    C    0.78145   0.12791   0.28878   1.000
    C159    C    0.78147   0.62791   0.28870   1.000
    C160    C    0.28176   0.10758   0.21994   1.000
    C161    C    0.28180   0.60758   0.21996   1.000
    C162    C    0.78178   0.10757   0.21998   1.000
    C163    C    0.78178   0.60758   0.21993   1.000
    C164    C    0.19873   0.16483   0.39598   1.000
    C165    C    0.19892   0.66485   0.39603   1.000
    C166    C    0.69880   0.16483   0.39603   1.000
    C167    C    0.69886   0.66483   0.39599   1.000
    C168    C    0.45019   0.42401   0.88915   1.000
    C169    C    0.45021   0.92400   0.88917   1.000
    C170    C    0.95021   0.42400   0.88917   1.000
    C171    C    0.95019   0.92400   0.88916   1.000
    C172    C    0.44975   0.40039   0.81567   1.000
    C173    C    0.44984   0.90038   0.81569   1.000
    C174    C    0.94983   0.40038   0.81569   1.000
    C175    C    0.86753   0.88796   0.78161   1.000
    C176    C    0.36716   0.36765   0.71281   1.000
    C177    C    0.36736   0.86762   0.71277   1.000
    C178    C    0.86733   0.36763   0.71278   1.000
    C179    C    0.86723   0.86764   0.71280   1.000
    C180    C    0.44908   0.35966   0.67716   1.000
    C181    C    0.44933   0.85966   0.67718   1.000
    C182    C    0.94929   0.35966   0.67718   1.000
    C183    C    0.94917   0.85967   0.67717   1.000
    C184    C    0.03151   0.37213   0.71126   1.000
    C185    C    0.03141   0.87213   0.71123   1.000
    C186    C    0.53135   0.37213   0.71120   1.000
    C187    C    0.53155   0.87214   0.71120   1.000
    C188    C    0.03176   0.39248   0.78006   1.000
    C189    C    0.03169   0.89247   0.78000   1.000
    C190    C    0.53167   0.39247   0.78000   1.000
    C191    C    0.53179   0.89248   0.78000   1.000
    C192    C    0.44866   0.33520   0.60394   1.000
    C193    C    0.44908   0.83519   0.60396   1.000
    C194    C    0.94900   0.33519   0.60395   1.000
    C195    C    0.94881   0.83519   0.60395   1.000
    O196    O    0.27668   0.18394   0.58194   1.000
    O197    O    0.27668   0.68403   0.58201   1.000
    O198    O    0.77667   0.18401   0.58201   1.000
    O199    O    0.77670   0.68398   0.58196   1.000
    O200    O    0.12414   0.18362   0.58128   1.000
    O201    O    0.12415   0.68369   0.58130   1.000
    O202    O    0.62414   0.18369   0.58134   1.000
    O203    O    0.62416   0.68364   0.58130   1.000
    O204    O    0.12211   0.07491   0.92480   1.000
    O205    O    0.12204   0.57492   0.92480   1.000
    O206    O    0.62211   0.07491   0.92483   1.000
    O207    O    0.62212   0.57492   0.92481   1.000
    O208    O    0.27461   0.07484   0.92527   1.000
    O209    O    0.27454   0.57485   0.92531   1.000
    O210    O    0.77461   0.07484   0.92530   1.000
    O211    O    0.77461   0.57485   0.92528   1.000
    O212    O    0.02682   0.31595   0.41785   1.000
    O213    O    0.02690   0.81594   0.41784   1.000
    O214    O    0.52692   0.31594   0.41782   1.000
    O215    O    0.52685   0.81595   0.41785   1.000
    O216    O    0.37439   0.31641   0.41870   1.000
    O217    O    0.37432   0.81646   0.41875   1.000
    O218    O    0.87431   0.31644   0.41874   1.000
    O219    O    0.87439   0.81644   0.41874   1.000
    O220    O    0.37191   0.42512   0.07520   1.000
    O221    O    0.37189   0.92512   0.07520   1.000
    O222    O    0.87188   0.42511   0.07520   1.000
    O223    O    0.87197   0.92513   0.07520   1.000
    O224    O    0.27673   0.06607   0.08190   1.000
    O225    O    0.27672   0.56605   0.08200   1.000
    O226    O    0.77673   0.06603   0.08202   1.000
    O227    O    0.77671   0.56607   0.08196   1.000
    O228    O    0.12420   0.06640   0.08127   1.000
    O229    O    0.12419   0.56637   0.08133   1.000
    O230    O    0.62420   0.06637   0.08132   1.000
    O231    O    0.62417   0.56639   0.08100   1.000
    O232    O    0.12236   0.17511   0.42481   1.000
    O233    O    0.12258   0.67513   0.42490   1.000
    O234    O    0.62244   0.17512   0.42480   1.000
    O235    O    0.62251   0.67512   0.42485   1.000
    O236    O    0.27485   0.17514   0.42526   1.000
    O237    O    0.27508   0.67514   0.42527   1.000
    O238    O    0.77494   0.17514   0.42530   1.000
    O239    O    0.77500   0.67514   0.42525   1.000
    O240    O    0.02662   0.43394   0.91801   1.000
    O241    O    0.02661   0.93397   0.91798   1.000
    O242    O    0.52663   0.43397   0.91795   1.000
    O243    O    0.52663   0.93396   0.91801   1.000
    O244    O    0.37410   0.43368   0.91863   1.000
    O245    O    0.37410   0.93367   0.91862   1.000
    O246    O    0.87410   0.43366   0.91862   1.000
    O247    O    0.87409   0.93367   0.91863   1.000
    O248    O    0.37226   0.32492   0.57510   1.000
    O249    O    0.37274   0.82490   0.57506   1.000
    O250    O    0.87265   0.32490   0.57508   1.000
    O251    O    0.87242   0.82492   0.57511   1.000
    O252    O    0.02514   0.32489   0.57472   1.000
    O253    O    0.02491   0.82488   0.57467   1.000
    O254    O    0.52476   0.32487   0.57464   1.000
    O255    O    0.52524   0.82489   0.57474   1.000
loop_
    _geom_bond_atom_site_label_1
    _geom_bond_atom_site_label_2
    _geom_bond_distance
    _geom_bond_site_symmetry_2
    _ccdc_geom_bond_type
    O102   C132      1.27581      .   S
    O101   C135      1.27553  1_455   S
    O103   C133      1.27570      .   S
    O100   C134      1.27548  1_455   S
    O223   C135      1.27523      .   S
    O222   C134      1.27519      .   S
    O221   C133      1.27518      .   S
    O220   C132      1.27519      .   S
    O231   C139      1.27824      .   S
    O228   C136      1.27566      .   S
    O230   C138      1.27568      .   S
    O229   C137      1.27560      .   S
    O224   C136      1.27543      .   S
    O227   C139      1.27490      .   S
    O225   C137      1.27482      .   S
    O226   C138      1.27484      .   S
    C132   C120      1.49410      .   S
    C133   C121      1.49412      .   S
    C134   C122      1.49411      .   S
    C135   C123      1.49415      .   S
    C136   C140      1.49433      .   S
    C139   C143      1.49435      .   S
    C137   C141      1.49437      .   S
    C138   C142      1.48879      .   S
    C120   C126      1.40324      .   S
    C120   C116      1.40378      .   S
    C123   C125      1.40367  1_655   S
    C123   C119      1.40385      .   S
    C122   C124      1.40289  1_655   S
    C122   C118      1.40382      .   S
    C121   C127      1.40393      .   S
    C121   C117      1.40381      .   S
    H26    C126      1.08825      .   S
    H27    C127      1.08898      .   S
    H25    C125      1.08903      .   S
    H24    C124      1.08809      .   S
    C142   C146      1.40649      .   S
    C142   C162      1.40678      .   S
    C140   C144      1.40374      .   S
    C140   C160      1.40385      .   S
    C143   C147      1.40380      .   S
    C143   C163      1.40386      .   S
    C141   C145      1.40378      .   S
    C141   C161      1.40393      .   S
    H21    C117      1.08972      .   S
    H23    C119      1.08902      .   S
    H22    C118      1.08896      .   S
    H20    C116      1.08889      .   S
    H32    C144      1.08894      .   S
    H35    C147      1.08902      .   S
    H34    C146      1.08894      .   S
    H33    C145      1.08898      .   S
    H47    C163      1.08894      .   S
    H45    C161      1.08900      .   S
    H46    C162      1.08920      .   S
    H44    C160      1.08890      .   S
    C124   C128      1.37537      .   S
    C126   C130      1.39173      .   S
    C125   C129      1.39040      .   S
    C127   C131      1.37368      .   S
    C116   C112      1.39049      .   S
    C119   C115      1.39029      .   S
    C118   C114      1.39047      .   S
    C117   C113      1.39046      .   S
    C144   C148      1.39041      .   S
    C147   C151      1.39041      .   S
    C146   C150      1.39043      .   S
    C145   C149      1.39044      .   S
    C163   C159      1.38974      .   S
    C160   C156      1.39049      .   S
    C161   C157      1.39034      .   S
    C162   C158      1.39033      .   S
    C131   H31       1.09750      .   S
    C131   C109      1.41268      .   S
    C128   H28       1.09758      .   S
    C128   C110      1.41160  1_455   S
    C130   H30       1.08901      .   S
    C130   C108      1.40398      .   S
    C129   H29       1.08896      .   S
    C129   C111      1.40372  1_455   S
    C115   H19       1.08893      .   S
    C115   C111      1.40377      .   S
    C112   H16       1.08895      .   S
    C112   C108      1.40378      .   S
    C114   H18       1.08890      .   S
    C114   C110      1.40298      .   S
    C113   H17       1.08898      .   S
    C113   C109      1.40380      .   S
    C148   H36       1.08874      .   S
    C148   C152      1.40382      .   S
    C151   H39       1.08822      .   S
    C151   C155      1.40386      .   S
    C150   H38       1.08622      .   S
    C150   C154      1.40386      .   S
    C149   H37       1.08896      .   S
    C149   C153      1.40396      .   S
    C159   H43       1.08940      .   S
    C159   C155      1.40421      .   S
    C156   H40       1.08896      .   S
    C156   C152      1.40381      .   S
    C157   H41       1.08905      .   S
    C157   C153      1.40388      .   S
    C158   H42       1.08906      .   S
    C158   C154      1.40386      .   S
    C110   C106      1.49488      .   S
    C108   C104      1.49362      .   S
    C111   C107      1.49437      .   S
    C109   C105      1.49431      .   S
    C152   C164      1.49416      .   S
    C155   C167      1.49400      .   S
    C153   C165      1.49413      .   S
    C154   C166      1.49420      .   S
    C106   O212      1.27507  1_655   S
    C106   O218      1.27608      .   S
    C104   O214      1.27518      .   S
    C104   O216      1.27560      .   S
    C107   O213      1.27467  1_655   S
    C107   O219      1.27558      .   S
    C105   O215      1.27482      .   S
    C105   O217      1.27563      .   S
    C164   O232      1.27514      .   S
    C164   O236      1.27567      .   S
    C167   O235      1.27517      .   S
    C167   O239      1.27577      .   S
    C165   O233      1.27514      .   S
    C165   O237      1.27576      .   S
    C166   O234      1.27453      .   S
    C166   O238      1.27579      .   S
    O254   C192      1.27573      .   S
    O253   C195      1.27558  1_455   S
    O252   C194      1.27556  1_455   S
    O255   C193      1.27583      .   S
    O249   C193      1.27515      .   S
    O250   C194      1.27507      .   S
    O248   C192      1.27546      .   S
    O251   C195      1.27519      .   S
    O200   C64       1.27562      .   S
    O203   C67       1.27551      .   S
    O201   C65       1.27576      .   S
    O202   C66       1.27564      .   S
    O196   C64       1.27493      .   S
    O199   C67       1.27491      .   S
    O198   C66       1.27490      .   S
    O197   C65       1.27481      .   S
    C192   C180      1.49399      .   S
    C195   C183      1.49403      .   S
    C194   C182      1.49418      .   S
    C193   C181      1.49400      .   S
    C64    C72       1.49439      .   S
    C67    C75       1.49449      .   S
    C65    C73       1.49460      .   S
    C66    C74       1.49271      .   S
    C180   C186      1.40386      .   S
    C180   C176      1.40396      .   S
    C183   C185      1.40360  1_655   S
    C183   C179      1.40397      .   S
    C182   C184      1.40355  1_655   S
    C182   C178      1.40395      .   S
    C181   C187      1.40310      .   S
    C181   C177      1.40397      .   S
    H58    C186      1.08897      .   S
    H57    C185      1.08899      .   S
    H56    C184      1.08903      .   S
    H59    C187      1.08827      .   S
    C74    C78       1.40456      .   S
    C74    C94       1.40475      .   S
    C72    C76       1.40107      .   S
    C72    C92       1.40401      .   S
    C75    C79       1.40371      .   S
    C75    C95       1.40397      .   S
    C73    C77       1.40384      .   S
    C73    C93       1.40336      .   S
    H53    C177      1.08893      .   S
    H54    C178      1.08897      .   S
    H55    C179      1.08901      .   S
    H52    C176      1.08903      .   S
    H0     C76       1.08606      .   S
    H3     C79       1.08890      .   S
    H1     C77       1.08903      .   S
    H2     C78       1.08895      .   S
    H12    C92       1.08899      .   S
    H15    C95       1.08900      .   S
    H14    C94       1.08897      .   S
    H13    C93       1.08840      .   S
    C186   C190      1.39033      .   S
    C187   C191      1.39032      .   S
    C185   C189      1.38976      .   S
    C184   C188      1.39033      .   S
    C177   C70       1.39042      .   S
    C178   C71       1.39043      .   S
    C179   C175      1.39043      .   S
    C176   C69       1.39025      .   S
    C76    C80       1.39591      .   S
    C79    C83       1.39045      .   S
    C77    C81       1.39030      .   S
    C78    C82       1.39032      .   S
    C93    C89       1.39171      .   S
    C92    C88       1.39036      .   S
    C95    C91       1.39035      .   S
    C94    C90       1.39041      .   S
    C191   H63       1.08967      .   S
    C191   C173      1.40464      .   S
    C190   H62       1.08899      .   S
    C190   C172      1.40400      .   S
    C189   H61       1.08933      .   S
    C189   C68       1.40326  1_455   S
    C188   H60       1.08898      .   S
    C188   C174      1.40377  1_455   S
    C70    H49       1.08903      .   S
    C70    C173      1.40381      .   S
    C71    H50       1.08898      .   S
    C71    C174      1.40378      .   S
    C175   H51       1.00417      .   S
    C175   C68       1.40296      .   S
    C69    H48       1.08886      .   S
    C69    C172      1.40379      .   S
    C80    H4        1.08899      .   S
    C80    C84       1.40387      .   S
    C83    H7        1.08898      .   S
    C83    C87       1.40326      .   S
    C81    H5        1.08894      .   S
    C81    C85       1.40387      .   S
    C82    H6        1.08896      .   S
    C82    C86       1.40391      .   S
    C88    H8        1.08898      .   S
    C88    C84       1.40384      .   S
    C91    H11       1.08905      .   S
    C91    C87       1.40327      .   S
    C90    H10       1.08909      .   S
    C90    C86       1.40390      .   S
    C89    H9        1.08899      .   S
    C89    C85       1.40383      .   S
    C68    C171      1.49590      .   S
    C172   C168      1.49439      .   S
    C174   C170      1.49434      .   S
    C173   C169      1.49438      .   S
    C87    C99       1.49531      .   S
    C84    C96       1.49412      .   S
    C86    C98       1.49412      .   S
    C85    C97       1.49415      .   S
    C168   O242      1.27479      .   S
    C168   O244      1.27557      .   S
    C171   O241      1.27463  1_655   S
    C171   O247      1.27562      .   S
    C169   O243      1.27484      .   S
    C169   O245      1.27561      .   S
    C170   O240      1.27462  1_655   S
    C170   O246      1.27556      .   S
    C96    O204      1.27527      .   S
    C96    O208      1.27579      .   S
    C99    O207      1.27524      .   S
    C99    O211      1.27583      .   S
    C98    O206      1.27517      .   S
    C98    O210      1.27576      .   S
    C97    O205      1.27497      .   S
    C97    O209      1.27578      .   S
