# CIF file generated by openbabel 2.4.90, see http://openbabel.sf.net
data_I
_chemical_name_common ''
_cell_length_a 14.788
_cell_length_b 18.115
_cell_length_c 19.486
_cell_angle_alpha 90.005
_cell_angle_beta 89.99
_cell_angle_gamma 90.07
_space_group_name_H-M_alt 'P 1'
_space_group_name_Hall 'P 1'
loop_
    _symmetry_equiv_pos_as_xyz
    x,y,z
loop_
    _atom_site_label
    _atom_site_type_symbol
    _atom_site_fract_x
    _atom_site_fract_y
    _atom_site_fract_z
    _atom_site_occupancy
    Sc0     Sc   0.32448   0.75013   0.49979   1.000
    Sc1     Sc   0.82445   0.25011   0.49978   1.000
    Sc2     Sc   0.82447   0.75011   0.49975   1.000
    Sc3     Sc   0.07444   0.24991   0.50017   1.000
    Sc4     Sc   0.07446   0.74993   0.50020   1.000
    Sc5     Sc   0.57442   0.24993   0.50021   1.000
    Sc6     Sc   0.57448   0.74991   0.50017   1.000
    Sc7     Sc   0.32427   0.49997   0.99970   1.000
    Sc8     Sc   0.32428   0.99997   0.99968   1.000
    Sc9     Sc   0.82428   0.49996   0.99969   1.000
    Sc10    Sc   0.82429   0.99997   0.99971   1.000
    Sc11    Sc   0.07429   0.00006   0.00024   1.000
    Sc12    Sc   0.07427   0.50005   0.00029   1.000
    Sc13    Sc   0.57429   0.00005   0.00028   1.000
    Sc14    Sc   0.57428   0.50006   0.00025   1.000
    Sc15    Sc   0.32442   0.25009   0.49972   1.000
