# CIF file generated by openbabel 2.4.90, see http://openbabel.sf.net
data_I
_chemical_name_common ''
_cell_length_a 14.788
_cell_length_b 18.115
_cell_length_c 19.486
_cell_angle_alpha 90.005
_cell_angle_beta 89.99
_cell_angle_gamma 90.07
_space_group_name_H-M_alt 'P 1'
_space_group_name_Hall 'P 1'
loop_
    _symmetry_equiv_pos_as_xyz
    x,y,z
loop_
    _atom_site_label
    _atom_site_type_symbol
    _atom_site_fract_x
    _atom_site_fract_y
    _atom_site_fract_z
    _atom_site_occupancy
    H0      H    0.19944   0.35742   0.49341   1.000
    H1      H    0.19945   0.85741   0.49292   1.000
    H2      H    0.69945   0.35741   0.49301   1.000
    H3      H    0.69946   0.85741   0.49318   1.000
    H4      H    0.44907   0.14263   0.50698   1.000
    H5      H    0.44908   0.64263   0.50686   1.000
    H6      H    0.94908   0.14263   0.50690   1.000
    H7      H    0.94909   0.64263   0.50694   1.000
    H8      H    0.19900   0.39262   0.99303   1.000
    H9      H    0.19901   0.89262   0.99320   1.000
    H10     H    0.69901   0.39261   0.99314   1.000
    H11     H    0.69902   0.89263   0.99308   1.000
    H12     H    0.44936   0.10739   0.00000   1.000
    H13     H    0.44936   0.60740   0.00000   1.000
    H14     H    0.94937   0.10740   0.00000   1.000
    H15     H    0.94936   0.60740   0.00000   1.000
    O16     O    0.44930   0.19612   0.50288   1.000
    O17     O    0.19941   0.30389   0.49706   1.000
    O18     O    0.19944   0.80392   0.49710   1.000
    O19     O    0.69942   0.30391   0.49712   1.000
    O20     O    0.69945   0.80390   0.49705   1.000
    O21     O    0.44933   0.69614   0.50289   1.000
    O22     O    0.94931   0.19613   0.50289   1.000
    O23     O    0.94934   0.69613   0.50280   1.000
    O24     O    0.19917   0.44612   0.99708   1.000
    O25     O    0.19918   0.94614   0.99700   1.000
    O26     O    0.69918   0.44613   0.99707   1.000
    O27     O    0.69919   0.94613   0.99700   1.000
    O28     O    0.44931   0.05389   0.00289   1.000
    O29     O    0.44930   0.55390   0.00289   1.000
    O30     O    0.94932   0.05389   0.00289   1.000
    O31     O    0.94931   0.55389   0.00290   1.000
loop_
    _geom_bond_atom_site_label_1
    _geom_bond_atom_site_label_2
    _geom_bond_distance
    _geom_bond_site_symmetry_2
    _ccdc_geom_bond_type
    H12    O28       0.97090      .   S
    H13    O29       0.97081      .   S
    H14    O30       0.97095      .   S
    H15    O31       0.97097      .   S
    H1     O18       0.97238      .   S
    H2     O19       0.97239      .   S
    H3     O20       0.97236      .   S
    H0     O17       0.97238      .   S
    O23    H7        0.97250      .   S
    O16    H4        0.97238      .   S
    O21    H5        0.97237      .   S
    O22    H6        0.97236      .   S
    H8     O24       0.97239      .   S
    H11    O27       0.97226      .   S
    H10    O26       0.97242      .   S
    H9     O25       0.97230      .   S
