# CIF file generated by openbabel 2.4.90, see http://openbabel.sf.net
data_I
_chemical_name_common ''
_cell_length_a 14.788
_cell_length_b 18.115
_cell_length_c 19.486
_cell_angle_alpha 90.005
_cell_angle_beta 89.99
_cell_angle_gamma 90.07
_space_group_name_H-M_alt 'P 1'
_space_group_name_Hall 'P 1'
loop_
    _symmetry_equiv_pos_as_xyz
    x,y,z
loop_
    _atom_site_label
    _atom_site_type_symbol
    _atom_site_fract_x
    _atom_site_fract_y
    _atom_site_fract_z
    _atom_site_occupancy
    Zr0     Zr   0.32442   0.25009   0.49972   1.000
    Zr1     Zr   0.32448   0.75013   0.49979   1.000
    Zr2     Zr   0.82445   0.25011   0.49978   1.000
    Zr3     Zr   0.82447   0.75011   0.49975   1.000
    Zr4     Zr   0.07444   0.24991   0.50017   1.000
    Zr5     Zr   0.07446   0.74993   0.50020   1.000
    Zr6     Zr   0.57442   0.24993   0.50021   1.000
    Zr7     Zr   0.57448   0.74991   0.50017   1.000
    Zr8     Zr   0.32427   0.49997   0.99970   1.000
    Zr9     Zr   0.32428   0.99997   0.99968   1.000
    Zr10    Zr   0.82428   0.49996   0.99969   1.000
    Zr11    Zr   0.82429   0.99997   0.99971   1.000
    Zr12    Zr   0.07429   0.00006   0.00024   1.000
    Zr13    Zr   0.07427   0.50005   0.00029   1.000
    Zr14    Zr   0.57429   0.00005   0.00028   1.000
    Zr15    Zr   0.57428   0.50006   0.00025   1.000
    N16     N    0.94963   0.84119   0.31737   1.000
    O17     O    0.89942   0.82675   0.35286   1.000
    O18     O    0.00005   0.82658   0.35275   1.000
    N19     N    0.44917   0.40100   0.17679   1.000
    O20     O    0.39874   0.41638   0.14196   1.000
    O21     O    0.49937   0.41641   0.14194   1.000
    N22     N    0.44914   0.90101   0.17677   1.000
    O23     O    0.49934   0.91642   0.14194   1.000
    O24     O    0.39872   0.91639   0.14193   1.000
    N25     N    0.94966   0.40884   0.81738   1.000
    O26     O    0.00001   0.42340   0.85282   1.000
    O27     O    0.89939   0.42331   0.85282   1.000
    N28     N    0.94960   0.90884   0.81695   1.000
    O29     O    0.99997   0.92341   0.85248   1.000
    O30     O    0.89934   0.92331   0.85251   1.000
    N31     N    0.44956   0.40884   0.81736   1.000
    O32     O    0.49994   0.42341   0.85278   1.000
    O33     O    0.39930   0.42331   0.85282   1.000
    N34     N    0.44969   0.90884   0.81737   1.000
    O35     O    0.50004   0.92340   0.85281   1.000
    O36     O    0.39940   0.92331   0.85282   1.000
    N37     N    0.19916   0.59902   0.82316   1.000
    O38     O    0.14875   0.58365   0.85801   1.000
    O39     O    0.24938   0.58361   0.85799   1.000
    N40     N    0.69920   0.09901   0.82316   1.000
    O41     O    0.64879   0.08364   0.85802   1.000
    O42     O    0.74942   0.08360   0.85799   1.000
    N43     N    0.19920   0.09900   0.82311   1.000
    O44     O    0.24941   0.08360   0.85795   1.000
    O45     O    0.14879   0.08363   0.85797   1.000
    N46     N    0.69920   0.59901   0.82314   1.000
    O47     O    0.64880   0.58364   0.85799   1.000
    O48     O    0.74942   0.58360   0.85797   1.000
    N49     N    0.94912   0.40100   0.17676   1.000
    O50     O    0.99932   0.41641   0.14193   1.000
    O51     O    0.89870   0.41638   0.14193   1.000
    N52     N    0.69966   0.09118   0.18258   1.000
    O53     O    0.75003   0.07661   0.14716   1.000
    O54     O    0.64940   0.07671   0.14713   1.000
    N55     N    0.69966   0.59119   0.18253   1.000
    O56     O    0.75003   0.57662   0.14713   1.000
    O57     O    0.64939   0.57673   0.14703   1.000
    N58     N    0.19963   0.09119   0.18255   1.000
    O59     O    0.25001   0.07662   0.14711   1.000
    O60     O    0.14938   0.07673   0.14710   1.000
    N61     N    0.19968   0.59119   0.18260   1.000
    O62     O    0.25004   0.57662   0.14717   1.000
    O63     O    0.14941   0.57672   0.14715   1.000
    C64     C    0.44921   0.66938   0.50487   1.000
    O65     O    0.48056   0.69620   0.50320   1.000
    O66     O    0.41806   0.69626   0.50311   1.000
    C67     C    0.69946   0.83066   0.49511   1.000
    O68     O    0.66821   0.80378   0.49686   1.000
    O69     O    0.73071   0.80383   0.49676   1.000
    C70     C    0.94921   0.66938   0.50487   1.000
    O71     O    0.98055   0.69621   0.50318   1.000
    O72     O    0.91806   0.69625   0.50307   1.000
    C73     C    0.19945   0.83066   0.49501   1.000
    O74     O    0.16820   0.80379   0.49683   1.000
    O75     O    0.23071   0.80385   0.49673   1.000
    C76     C    0.19910   0.91938   0.99510   1.000
    O77     O    0.23041   0.94622   0.99672   1.000
    O78     O    0.16792   0.94624   0.99686   1.000
    C79     C    0.69911   0.91938   0.99504   1.000
    O80     O    0.73042   0.94621   0.99670   1.000
    O81     O    0.66792   0.94624   0.99684   1.000
    C82     C    0.44934   0.08064   0.00145   1.000
    O83     O    0.41807   0.05378   0.00136   1.000
    O84     O    0.48057   0.05381   0.00152   1.000
    C85     C    0.94935   0.08065   0.00145   1.000
    O86     O    0.91808   0.05379   0.00137   1.000
    O87     O    0.98058   0.05381   0.00151   1.000
    C88     C    0.19909   0.41937   0.99506   1.000
    O89     O    0.23041   0.44621   0.99672   1.000
    O90     O    0.16791   0.44623   0.99687   1.000
    C91     C    0.69910   0.41937   0.99511   1.000
    O92     O    0.73041   0.44621   0.99674   1.000
    O93     O    0.66792   0.44623   0.99688   1.000
    C94     C    0.44933   0.58065   0.00145   1.000
    O95     O    0.41806   0.55379   0.00137   1.000
    O96     O    0.48056   0.55382   0.00151   1.000
    C97     C    0.94934   0.58065   0.00145   1.000
    O98     O    0.91807   0.55379   0.00137   1.000
    O99     O    0.98056   0.55381   0.00152   1.000
    C100    C    0.44918   0.16938   0.50493   1.000
    O101    O    0.48052   0.19620   0.50324   1.000
    O102    O    0.41802   0.19624   0.50311   1.000
    C103    C    0.94920   0.16938   0.50490   1.000
    O104    O    0.98054   0.19620   0.50321   1.000
    O105    O    0.91804   0.19625   0.50312   1.000
    C106    C    0.69944   0.33066   0.49507   1.000
    O107    O    0.66818   0.30379   0.49687   1.000
    O108    O    0.73069   0.30384   0.49676   1.000
    C109    C    0.19943   0.33066   0.49524   1.000
    O110    O    0.16818   0.30378   0.49693   1.000
    O111    O    0.23067   0.30382   0.49681   1.000
    C112    C    0.19935   0.15101   0.32312   1.000
    O113    O    0.14896   0.16637   0.35796   1.000
    O114    O    0.24957   0.16642   0.35796   1.000
    O115    O    0.19951   0.12023   0.25344   1.000
    C116    C    0.69956   0.15885   0.68260   1.000
    O117    O    0.74997   0.17343   0.64719   1.000
    O118    O    0.64933   0.17331   0.64713   1.000
    O119    O    0.69938   0.12980   0.75348   1.000
    C120    C    0.19956   0.15882   0.68254   1.000
    O121    O    0.14934   0.17328   0.64707   1.000
    O122    O    0.24996   0.17340   0.64713   1.000
    O123    O    0.19938   0.12978   0.75342   1.000
    C124    C    0.19955   0.65885   0.68259   1.000
    O125    O    0.24997   0.67344   0.64719   1.000
    O126    O    0.14933   0.67331   0.64711   1.000
    O127    O    0.19935   0.62981   0.75347   1.000
    C128    C    0.44927   0.34902   0.67678   1.000
    O129    O    0.39888   0.33366   0.64194   1.000
    O130    O    0.49951   0.33361   0.64195   1.000
    O131    O    0.44942   0.37981   0.74647   1.000
    C132    C    0.44949   0.84902   0.67680   1.000
    O133    O    0.39911   0.83366   0.64195   1.000
    O134    O    0.49974   0.83360   0.64197   1.000
    O135    O    0.44961   0.87980   0.74648   1.000
    C136    C    0.19944   0.65102   0.32317   1.000
    O137    O    0.14905   0.66638   0.35802   1.000
    O138    O    0.24969   0.66643   0.35801   1.000
    O139    O    0.19959   0.62023   0.25349   1.000
    C140    C    0.94944   0.34902   0.67680   1.000
    O141    O    0.89907   0.33365   0.64196   1.000
    O142    O    0.99968   0.33360   0.64197   1.000
    O143    O    0.94958   0.37980   0.74649   1.000
    C144    C    0.94934   0.84902   0.67638   1.000
    O145    O    0.89896   0.83366   0.64164   1.000
    O146    O    0.99958   0.83360   0.64164   1.000
    O147    O    0.94948   0.87980   0.74585   1.000
    C148    C    0.44958   0.84119   0.31733   1.000
    O149    O    0.39937   0.82676   0.35285   1.000
    O150    O    0.50001   0.82658   0.35272   1.000
    O151    O    0.44935   0.87023   0.24643   1.000
    C152    C    0.69958   0.65883   0.68256   1.000
    O153    O    0.74999   0.67342   0.64715   1.000
    O154    O    0.64936   0.67329   0.64709   1.000
    O155    O    0.69939   0.62980   0.75345   1.000
    C156    C    0.94955   0.34118   0.31732   1.000
    O157    O    0.89935   0.32675   0.35284   1.000
    O158    O    0.99998   0.32657   0.35271   1.000
    O159    O    0.94933   0.37022   0.24642   1.000
    C160    C    0.69939   0.15100   0.32314   1.000
    O161    O    0.64899   0.16637   0.35798   1.000
    O162    O    0.74962   0.16642   0.35800   1.000
    O163    O    0.69955   0.12022   0.25345   1.000
    C164    C    0.69941   0.65101   0.32312   1.000
    O165    O    0.64903   0.66637   0.35797   1.000
    O166    O    0.74965   0.66643   0.35797   1.000
    O167    O    0.69956   0.62023   0.25343   1.000
    C168    C    0.44961   0.34117   0.31735   1.000
    O169    O    0.50003   0.32658   0.35274   1.000
    O170    O    0.39940   0.32673   0.35284   1.000
    O171    O    0.44939   0.37022   0.24646   1.000
    C172    C    0.94920   0.90101   0.17680   1.000
    O173    O    0.89878   0.91639   0.14197   1.000
    O174    O    0.99940   0.91642   0.14195   1.000
    O175    O    0.94942   0.87023   0.24648   1.000
loop_
    _geom_bond_atom_site_label_1
    _geom_bond_atom_site_label_2
    _geom_bond_distance
    _geom_bond_site_symmetry_2
    _ccdc_geom_bond_type
    N16    O17       1.04760      .   S
    Zr3    O17       3.36816      .   S
    N16    O18       1.04979  1_655   S
    Zr5    O18       3.37634      .   S
    N19    O20       1.04643      .   S
    Zr8    O20       3.34597  1_556   S
    N19    O21       1.04378      .   S
    Zr15   O21       3.33800      .   S
    N22    O23       1.04360      .   S
    Zr14   O23       3.33749  1_545   S
    N22    O24       1.04638      .   S
    Zr9    O24       3.34569  1_556   S
    N25    O26       1.04915  1_655   S
    Zr13   O26       3.37469  1_554   S
    N25    O27       1.04821      .   S
    Zr10   O27       3.36958      .   S
    N28    O29       1.05051      .   S
    Zr12   O29       3.37978  1_444   S
    N28    O30       1.04956      .   S
    Zr11   O30       3.37475      .   S
    N31    O32       1.04931      .   S
    Zr15   O32       3.37499  1_554   S
    N31    O33       1.04817      .   S
    Zr8    O33       3.36945      .   S
    N34    O35       1.04916      .   S
    Zr14   O35       3.37456  1_544   S
    N34    O36       1.04832      .   S
    Zr9    O36       3.36961      .   S
    N37    O38       1.04583      .   S
    Zr13   O38       3.34491  1_554   S
    N37    O39       1.04443      .   S
    Zr8    O39       3.33967      .   S
    N40    O41       1.04584      .   S
    Zr14   O41       3.34466  1_554   S
    N40    O42       1.04443      .   S
    Zr11   O42       3.33968  1_565   S
    N43    O44       1.04445      .   S
    Zr9    O44       3.33976  1_565   S
    N43    O45       1.04585      .   S
    Zr12   O45       3.34465  1_554   S
    N46    O47       1.04584      .   S
    Zr15   O47       3.34463  1_554   S
    N46    O48       1.04442      .   S
    Zr10   O48       3.33970      .   S
    N49    O50       1.04354      .   S
    Zr13   O50       3.33737  1_455   S
    N49    O51       1.04629      .   S
    Zr10   O51       3.34546  1_556   S
    N52    O53       1.04938      .   S
    Zr11   O53       3.37502  1_566   S
    N52    O54       1.04786      .   S
    Zr14   O54       3.36844      .   S
    N55    O56       1.04908      .   S
    Zr10   O56       3.37495  1_556   S
    N55    O57       1.04853      .   S
    Zr15   O57       3.36739      .   S
    N58    O59       1.04961      .   S
    Zr9    O59       3.37492  1_566   S
    N58    O60       1.04780      .   S
    Zr12   O60       3.36861      .   S
    N61    O62       1.04943      .   S
    Zr8    O62       3.37530  1_556   S
    N61    O63       1.04799      .   S
    Zr13   O63       3.36890      .   S
    C64    O65       0.67191      .   S
    Zr7    O65       1.69582      .   S
    C64    O66       0.67155      .   S
    Zr1    O66       1.69555      .   S
    C67    O68       0.67166      .   S
    Zr7    O68       1.69537      .   S
    C67    O69       0.67179      .   S
    Zr3    O69       1.69593      .   S
    C70    O71       0.67190      .   S
    Zr5    O71       1.69571  1_455   S
    C70    O72       0.67154      .   S
    Zr3    O72       1.69556      .   S
    C73    O74       0.67171      .   S
    Zr5    O74       1.69554      .   S
    C73    O75       0.67182      .   S
    Zr1    O75       1.69608      .   S
    C76    O77       0.67178      .   S
    Zr9    O77       1.69561      .   S
    C76    O78       0.67161      .   S
    Zr12   O78       1.69561  1_544   S
    C79    O80       0.67179      .   S
    Zr11   O80       1.69565      .   S
    C79    O81       0.67162      .   S
    Zr14   O81       1.69566  1_544   S
    C82    O83       0.67079      .   S
    Zr9    O83       1.69457  1_566   S
    C82    O84       0.67097      .   S
    Zr14   O84       1.69500      .   S
    C85    O86       0.67082      .   S
    Zr11   O86       1.69461  1_566   S
    C85    O87       0.67092      .   S
    Zr12   O87       1.69486  1_455   S
    C88    O89       0.67179      .   S
    Zr8    O89       1.69562      .   S
    C88    O90       0.67168      .   S
    Zr13   O90       1.69576  1_554   S
    C91    O92       0.67178      .   S
    Zr10   O92       1.69560      .   S
    C91    O93       0.67168      .   S
    Zr15   O93       1.69574  1_554   S
    C94    O95       0.67085      .   S
    Zr8    O95       1.69473  1_556   S
    C94    O96       0.67093      .   S
    Zr15   O96       1.69498      .   S
    C97    O98       0.67085      .   S
    Zr10   O98       1.69470  1_556   S
    C97    O99       0.67093      .   S
    Zr13   O99       1.69484  1_455   S
    C100   O101      0.67191      .   S
    Zr6    O101      1.69582      .   S
    C100   O102      0.67157      .   S
    Zr0    O102      1.69563      .   S
    C103   O104      0.67183      .   S
    Zr4    O104      1.69562  1_455   S
    C103   O105      0.67158      .   S
    Zr2    O105      1.69559      .   S
    C106   O107      0.67174      .   S
    Zr6    O107      1.69559      .   S
    C106   O108      0.67180      .   S
    Zr2    O108      1.69606      .   S
    C109   O110      0.67170      .   S
    Zr4    O110      1.69541      .   S
    C109   O111      0.67177      .   S
    Zr0    O111      1.69588      .   S
    C112   O113      1.04595      .   S
    Zr4    O113      3.34445      .   S
    C112   O114      1.04414      .   S
    Zr0    O114      3.33890      .   S
    C112   O115      1.46782      .   S
    N58    O115      1.47805      .   S
    C116   O117      1.04929      .   S
    Zr2    O117      3.37480      .   S
    C116   O118      1.04824      .   S
    Zr6    O118      3.36973      .   S
    C116   O119      1.47806      .   S
    N40    O119      1.46797      .   S
    C120   O121      1.04811      .   S
    Zr4    O121      3.36955      .   S
    C120   O122      1.04925      .   S
    Zr0    O122      3.37467      .   S
    C120   O123      1.47800      .   S
    N43    O123      1.46807      .   S
    C124   O125      1.04932      .   S
    Zr1    O125      3.37485      .   S
    C124   O126      1.04822      .   S
    Zr5    O126      3.36943      .   S
    C124   O127      1.47810      .   S
    N37    O127      1.46797      .   S
    C128   O129      1.04568      .   S
    Zr0    O129      3.34373      .   S
    C128   O130      1.04453      .   S
    Zr6    O130      3.33992      .   S
    C128   O131      1.46786      .   S
    N31    O131      1.47805      .   S
    C132   O133      1.04552      .   S
    Zr1    O133      3.34330      .   S
    C132   O134      1.04461      .   S
    Zr7    O134      3.34023      .   S
    C132   O135      1.46779      .   S
    N34    O135      1.47805      .   S
    C136   O137      1.04599      .   S
    Zr5    O137      3.34448      .   S
    C136   O138      1.04427      .   S
    Zr1    O138      3.33935      .   S
    C136   O139      1.46786      .   S
    N61    O139      1.47803      .   S
    C140   O141      1.04553      .   S
    Zr2    O141      3.34357      .   S
    C140   O142      1.04457      .   S
    Zr4    O142      3.34023  1_455   S
    C140   O143      1.46785      .   S
    N25    O143      1.47803      .   S
    C144   O145      1.04418      .   S
    Zr3    O145      3.33845      .   S
    C144   O146      1.04327      .   S
    Zr5    O146      3.33501  1_455   S
    C144   O147      1.46405      .   S
    N28    O147      1.48184      .   S
    C148   O149      1.04776      .   S
    Zr1    O149      3.36866      .   S
    C148   O150      1.04996      .   S
    Zr7    O150      3.37683      .   S
    C148   O151      1.47844      .   S
    N22    O151      1.46754      .   S
    C152   O153      1.04929      .   S
    Zr3    O153      3.37472      .   S
    C152   O154      1.04812      .   S
    Zr7    O154      3.36965      .   S
    C152   O155      1.47807      .   S
    N46    O155      1.46799      .   S
    C156   O157      1.04774      .   S
    Zr2    O157      3.36872      .   S
    C156   O158      1.04991      .   S
    Zr4    O158      3.37678  1_455   S
    C156   O159      1.47847      .   S
    N49    O159      1.46746      .   S
    C160   O161      1.04595      .   S
    Zr6    O161      3.34529      .   S
    C160   O162      1.04442      .   S
    Zr2    O162      3.33954      .   S
    C160   O163      1.46800      .   S
    N52    O163      1.47777      .   S
    C164   O165      1.04594      .   S
    Zr7    O165      3.34445      .   S
    C164   O166      1.04427      .   S
    Zr3    O166      3.33938      .   S
    C164   O167      1.46797      .   S
    N55    O167      1.47830      .   S
    C168   O169      1.04991      .   S
    Zr6    O169      3.37653      .   S
    C168   O170      1.04756      .   S
    Zr0    O170      3.36824      .   S
    C168   O171      1.47807      .   S
    N19    O171      1.46785      .   S
    C172   O173      1.04639      .   S
    Zr11   O173      3.34597  1_556   S
    C172   O174      1.04377      .   S
    Zr12   O174      3.33817  1_445   S
    C172   O175      1.46792      .   S
    N16    O175      1.47807      .   S
