# CIF file generated by openbabel 2.4.90, see http://openbabel.sf.net
data_I
_chemical_name_common ''
_cell_length_a 14.788
_cell_length_b 18.115
_cell_length_c 19.486
_cell_angle_alpha 90.005
_cell_angle_beta 89.99
_cell_angle_gamma 90.07
_space_group_name_H-M_alt 'P 1'
_space_group_name_Hall 'P 1'
loop_
    _symmetry_equiv_pos_as_xyz
    x,y,z
loop_
    _atom_site_label
    _atom_site_type_symbol
    _atom_site_fract_x
    _atom_site_fract_y
    _atom_site_fract_z
    _atom_site_occupancy
    Zr0     Zr   0.32442   0.25009   0.49972   1.000
    Zr1     Zr   0.32448   0.75013   0.49979   1.000
    Zr2     Zr   0.82445   0.25011   0.49978   1.000
    Zr3     Zr   0.82447   0.75011   0.49975   1.000
    Zr4     Zr   0.07444   0.24991   0.50017   1.000
    Zr5     Zr   0.07446   0.74993   0.50020   1.000
    Zr6     Zr   0.57442   0.24993   0.50021   1.000
    Zr7     Zr   0.57448   0.74991   0.50017   1.000
    Zr8     Zr   0.32427   0.49997   0.99970   1.000
    Zr9     Zr   0.32428   0.99997   0.99968   1.000
    Zr10    Zr   0.82428   0.49996   0.99969   1.000
    Zr11    Zr   0.82429   0.99997   0.99971   1.000
    Zr12    Zr   0.07429   0.00006   0.00024   1.000
    Zr13    Zr   0.07427   0.50005   0.00029   1.000
    Zr14    Zr   0.57429   0.00005   0.00028   1.000
    Zr15    Zr   0.57428   0.50006   0.00025   1.000
    Zr16    Zr   0.19944   0.35742   0.49341   1.000
    Zr17    Zr   0.19945   0.85741   0.49292   1.000
    Zr18    Zr   0.69945   0.35741   0.49301   1.000
    Zr19    Zr   0.69946   0.85741   0.49318   1.000
    Zr20    Zr   0.44907   0.14263   0.50698   1.000
    Zr21    Zr   0.44908   0.64263   0.50686   1.000
    Zr22    Zr   0.94908   0.14263   0.50690   1.000
    Zr23    Zr   0.94909   0.64263   0.50694   1.000
    Zr24    Zr   0.19900   0.39262   0.99303   1.000
    Zr25    Zr   0.19901   0.89262   0.99320   1.000
    Zr26    Zr   0.69901   0.39261   0.99314   1.000
    Zr27    Zr   0.69902   0.89263   0.99308   1.000
    Zr28    Zr   0.44936   0.10739   0.00000   1.000
    Zr29    Zr   0.44936   0.60740   0.00000   1.000
    Zr30    Zr   0.94937   0.10740   0.00000   1.000
    Zr31    Zr   0.94936   0.60740   0.00000   1.000
    Zr32    Zr   0.19941   0.30389   0.49706   1.000
    Zr33    Zr   0.19944   0.80392   0.49710   1.000
    Zr34    Zr   0.69942   0.30391   0.49712   1.000
    Zr35    Zr   0.69945   0.80390   0.49705   1.000
    Zr36    Zr   0.44930   0.19612   0.50288   1.000
    Zr37    Zr   0.44933   0.69614   0.50289   1.000
    Zr38    Zr   0.94931   0.19613   0.50289   1.000
    Zr39    Zr   0.94934   0.69613   0.50280   1.000
    Zr40    Zr   0.19917   0.44612   0.99708   1.000
    Zr41    Zr   0.19918   0.94614   0.99700   1.000
    Zr42    Zr   0.69918   0.44613   0.99707   1.000
    Zr43    Zr   0.69919   0.94613   0.99700   1.000
    Zr44    Zr   0.44931   0.05389   0.00289   1.000
    Zr45    Zr   0.44930   0.55390   0.00289   1.000
    Zr46    Zr   0.94932   0.05389   0.00289   1.000
    Zr47    Zr   0.94931   0.55389   0.00290   1.000
    O48     O    0.44934   0.08064   0.00145   1.000
    O49     O    0.44933   0.58065   0.00145   1.000
    O50     O    0.94935   0.08065   0.00145   1.000
    O51     O    0.94934   0.58065   0.00145   1.000
    O52     O    0.88681   0.02693   0.00130   1.000
    O53     O    0.38679   0.52693   0.00129   1.000
    O54     O    0.38680   0.02693   0.00128   1.000
    O55     O    0.88680   0.52693   0.00129   1.000
    O56     O    0.19945   0.83066   0.49501   1.000
    O57     O    0.69944   0.33066   0.49507   1.000
    O58     O    0.69946   0.83066   0.49511   1.000
    O59     O    0.19943   0.33066   0.49524   1.000
    O60     O    0.63697   0.77690   0.49861   1.000
    O61     O    0.13692   0.27690   0.49862   1.000
    O62     O    0.13695   0.77692   0.49865   1.000
    O63     O    0.63692   0.27692   0.49867   1.000
    O64     O    0.01187   0.22302   0.50153   1.000
    O65     O    0.51191   0.72302   0.50153   1.000
    O66     O    0.01190   0.72303   0.50150   1.000
    O67     O    0.51186   0.22303   0.50155   1.000
    O68     O    0.94921   0.66938   0.50487   1.000
    O69     O    0.44918   0.16938   0.50493   1.000
    O70     O    0.44921   0.66938   0.50487   1.000
    O71     O    0.94920   0.16938   0.50490   1.000
    O72     O    0.19909   0.41937   0.99506   1.000
    O73     O    0.69911   0.91938   0.99504   1.000
    O74     O    0.69910   0.41937   0.99511   1.000
    O75     O    0.19910   0.91938   0.99510   1.000
    O76     O    0.76174   0.97305   0.99836   1.000
    O77     O    0.26173   0.97305   0.99834   1.000
    O78     O    0.76173   0.47304   0.99838   1.000
    O79     O    0.26172   0.47305   0.99839   1.000
    O80     O    0.26191   0.27699   0.49839   1.000
    O81     O    0.26196   0.77703   0.49844   1.000
    O82     O    0.76194   0.27701   0.49845   1.000
    O83     O    0.76196   0.77700   0.49840   1.000
    O84     O    0.38686   0.22310   0.50130   1.000
    O85     O    0.38691   0.72314   0.50134   1.000
    O86     O    0.88688   0.22312   0.50134   1.000
    O87     O    0.88690   0.72312   0.50128   1.000
    O88     O    0.13672   0.47309   0.99869   1.000
    O89     O    0.13674   0.97310   0.99862   1.000
    O90     O    0.63673   0.47310   0.99866   1.000
    O91     O    0.63674   0.97309   0.99864   1.000
    O92     O    0.51180   0.02697   0.00159   1.000
    O93     O    0.51179   0.52698   0.00157   1.000
    O94     O    0.01181   0.02698   0.00157   1.000
    O95     O    0.01179   0.52697   0.00159   1.000
    N96     N    0.94942   0.87023   0.24648   1.000
    O97     O    0.89942   0.82675   0.35286   1.000
    O98     O    0.89878   0.91639   0.14197   1.000
    O99     O    0.99940   0.91642   0.14195   1.000
    O100    O    0.00005   0.82658   0.35275   1.000
    N101    N    0.44939   0.37022   0.24646   1.000
    O102    O    0.39874   0.41638   0.14196   1.000
    O103    O    0.49937   0.41641   0.14194   1.000
    O104    O    0.50003   0.32658   0.35274   1.000
    O105    O    0.39940   0.32673   0.35284   1.000
    N106    N    0.44935   0.87023   0.24643   1.000
    O107    O    0.49934   0.91642   0.14194   1.000
    O108    O    0.39937   0.82676   0.35285   1.000
    O109    O    0.39872   0.91639   0.14193   1.000
    O110    O    0.50001   0.82658   0.35272   1.000
    N111    N    0.94958   0.37980   0.74649   1.000
    O112    O    0.00001   0.42340   0.85282   1.000
    O113    O    0.89939   0.42331   0.85282   1.000
    O114    O    0.89907   0.33365   0.64196   1.000
    O115    O    0.99968   0.33360   0.64197   1.000
    N116    N    0.94948   0.87980   0.74585   1.000
    O117    O    0.99997   0.92341   0.85248   1.000
    O118    O    0.89934   0.92331   0.85251   1.000
    O119    O    0.89896   0.83366   0.64164   1.000
    O120    O    0.99958   0.83360   0.64164   1.000
    N121    N    0.44942   0.37981   0.74647   1.000
    O122    O    0.49994   0.42341   0.85278   1.000
    O123    O    0.39930   0.42331   0.85282   1.000
    O124    O    0.39888   0.33366   0.64194   1.000
    O125    O    0.49951   0.33361   0.64195   1.000
    N126    N    0.44961   0.87980   0.74648   1.000
    O127    O    0.50004   0.92340   0.85281   1.000
    O128    O    0.39940   0.92331   0.85282   1.000
    O129    O    0.39911   0.83366   0.64195   1.000
    O130    O    0.49974   0.83360   0.64197   1.000
    N131    N    0.19935   0.62981   0.75347   1.000
    O132    O    0.14875   0.58365   0.85801   1.000
    O133    O    0.24938   0.58361   0.85799   1.000
    O134    O    0.24997   0.67344   0.64719   1.000
    O135    O    0.14933   0.67331   0.64711   1.000
    N136    N    0.69938   0.12980   0.75348   1.000
    O137    O    0.64879   0.08364   0.85802   1.000
    O138    O    0.74942   0.08360   0.85799   1.000
    O139    O    0.74997   0.17343   0.64719   1.000
    O140    O    0.64933   0.17331   0.64713   1.000
    N141    N    0.19938   0.12978   0.75342   1.000
    O142    O    0.24941   0.08360   0.85795   1.000
    O143    O    0.14934   0.17328   0.64707   1.000
    O144    O    0.14879   0.08363   0.85797   1.000
    O145    O    0.24996   0.17340   0.64713   1.000
    N146    N    0.69939   0.62980   0.75345   1.000
    O147    O    0.64880   0.58364   0.85799   1.000
    O148    O    0.74942   0.58360   0.85797   1.000
    O149    O    0.74999   0.67342   0.64715   1.000
    O150    O    0.64936   0.67329   0.64709   1.000
    N151    N    0.94933   0.37022   0.24642   1.000
    O152    O    0.99932   0.41641   0.14193   1.000
    O153    O    0.89935   0.32675   0.35284   1.000
    O154    O    0.89870   0.41638   0.14193   1.000
    O155    O    0.99998   0.32657   0.35271   1.000
    N156    N    0.69955   0.12022   0.25345   1.000
    O157    O    0.75003   0.07661   0.14716   1.000
    O158    O    0.64940   0.07671   0.14713   1.000
    O159    O    0.64899   0.16637   0.35798   1.000
    O160    O    0.74962   0.16642   0.35800   1.000
    N161    N    0.69956   0.62023   0.25343   1.000
    O162    O    0.75003   0.57662   0.14713   1.000
    O163    O    0.64939   0.57673   0.14703   1.000
    O164    O    0.64903   0.66637   0.35797   1.000
    O165    O    0.74965   0.66643   0.35797   1.000
    N166    N    0.19951   0.12023   0.25344   1.000
    O167    O    0.25001   0.07662   0.14711   1.000
    O168    O    0.14938   0.07673   0.14710   1.000
    O169    O    0.14896   0.16637   0.35796   1.000
    O170    O    0.24957   0.16642   0.35796   1.000
    N171    N    0.19959   0.62023   0.25349   1.000
    O172    O    0.25004   0.57662   0.14717   1.000
    O173    O    0.14941   0.57672   0.14715   1.000
    O174    O    0.14905   0.66638   0.35802   1.000
    O175    O    0.24969   0.66643   0.35801   1.000
loop_
    _geom_bond_atom_site_label_1
    _geom_bond_atom_site_label_2
    _geom_bond_distance
    _geom_bond_site_symmetry_2
    _ccdc_geom_bond_type
    Zr28   O48       0.48545      .   S
    Zr44   O48       0.48545      .   S
    Zr29   O49       0.48540      .   S
    Zr45   O49       0.48540      .   S
    Zr30   O50       0.48548      .   S
    Zr46   O50       0.48548      .   S
    Zr31   O51       0.48548      .   S
    Zr47   O51       0.48548      .   S
    Zr46   O52       1.04547      .   S
    Zr11   O52       1.04547  1_566   S
    Zr45   O53       1.04555      .   S
    Zr8    O53       1.04555  1_556   S
    Zr44   O54       1.04547      .   S
    Zr9    O54       1.04547  1_566   S
    Zr47   O55       1.04553      .   S
    Zr10   O55       1.04553  1_556   S
    Zr17   O56       0.48619      .   S
    Zr33   O56       0.48619      .   S
    Zr18   O57       0.48620      .   S
    Zr34   O57       0.48620      .   S
    Zr19   O58       0.48618      .   S
    Zr35   O58       0.48618      .   S
    Zr16   O59       0.48619      .   S
    Zr32   O59       0.48619      .   S
    Zr35   O60       1.04533      .   S
    Zr7    O60       1.04533      .   S
    Zr32   O61       1.04533      .   S
    Zr4    O61       1.04533      .   S
    Zr33   O62       1.04546      .   S
    Zr5    O62       1.04546      .   S
    Zr34   O63       1.04547      .   S
    Zr6    O63       1.04547      .   S
    Zr4    O64       1.04538      .   S
    Zr38   O64       1.04538  1_655   S
    Zr7    O65       1.04549      .   S
    Zr37   O65       1.04549      .   S
    Zr5    O66       1.04539      .   S
    Zr39   O66       1.04539  1_655   S
    Zr6    O67       1.04549      .   S
    Zr36   O67       1.04549      .   S
    Zr39   O68       0.48625      .   S
    Zr23   O68       0.48625      .   S
    Zr36   O69       0.48619      .   S
    Zr20   O69       0.48619      .   S
    Zr37   O70       0.48619      .   S
    Zr21   O70       0.48619      .   S
    Zr38   O71       0.48618      .   S
    Zr22   O71       0.48618      .   S
    Zr24   O72       0.48619      .   S
    Zr40   O72       0.48619      .   S
    Zr27   O73       0.48613      .   S
    Zr43   O73       0.48613      .   S
    Zr26   O74       0.48621      .   S
    Zr42   O74       0.48621      .   S
    Zr25   O75       0.48615      .   S
    Zr41   O75       0.48615      .   S
    Zr43   O76       1.04546      .   S
    Zr11   O76       1.04546      .   S
    Zr41   O77       1.04543      .   S
    Zr9    O77       1.04543      .   S
    Zr42   O78       1.04543      .   S
    Zr10   O78       1.04543      .   S
    Zr40   O79       1.04544      .   S
    Zr8    O79       1.04544      .   S
    Zr32   O80       1.04575      .   S
    Zr0    O80       1.04575      .   S
    Zr33   O81       1.04590      .   S
    Zr1    O81       1.04590      .   S
    Zr34   O82       1.04590      .   S
    Zr2    O82       1.04590      .   S
    Zr35   O83       1.04577      .   S
    Zr3    O83       1.04577      .   S
    Zr36   O84       1.04574      .   S
    Zr0    O84       1.04574      .   S
    Zr37   O85       1.04568      .   S
    Zr1    O85       1.04568      .   S
    Zr38   O86       1.04568      .   S
    Zr2    O86       1.04568      .   S
    Zr39   O87       1.04570      .   S
    Zr3    O87       1.04570      .   S
    Zr40   O88       1.04573      .   S
    Zr13   O88       1.04573  1_554   S
    Zr41   O89       1.04565      .   S
    Zr12   O89       1.04565  1_544   S
    Zr42   O90       1.04571      .   S
    Zr15   O90       1.04571  1_554   S
    Zr43   O91       1.04568      .   S
    Zr14   O91       1.04568  1_544   S
    Zr44   O92       1.04571      .   S
    Zr14   O92       1.04571      .   S
    Zr45   O93       1.04572      .   S
    Zr15   O93       1.04572      .   S
    Zr46   O94       1.04562  1_655   S
    Zr12   O94       1.04562      .   S
    Zr47   O95       1.04559  1_655   S
    Zr13   O95       1.04559      .   S
    N96    O97       2.33716      .   S
    Zr3    O97       3.36816      .   S
    N96    O98       2.32593      .   S
    Zr11   O98       3.34597  1_556   S
    N96    O99       2.32240      .   S
    Zr12   O99       3.33817  1_445   S
    N96    O100      2.34010  1_655   S
    Zr5    O100      3.37634      .   S
    N101   O102      2.32588      .   S
    Zr8    O102      3.34597  1_556   S
    N101   O103      2.32230      .   S
    Zr15   O103      3.33800      .   S
    N101   O104      2.34022      .   S
    Zr6    O104      3.37653      .   S
    N101   O105      2.33705      .   S
    Zr0    O105      3.36824      .   S
    N106   O107      2.32178      .   S
    Zr14   O107      3.33749  1_545   S
    N106   O108      2.33768      .   S
    Zr1    O108      3.36866      .   S
    N106   O109      2.32553      .   S
    Zr9    O109      3.34569  1_556   S
    N106   O110      2.34063      .   S
    Zr7    O110      3.37683      .   S
    N111   O112      2.33920  1_655   S
    Zr13   O112      3.37469  1_554   S
    N111   O113      2.33793      .   S
    Zr10   O113      3.36958      .   S
    N111   O114      2.32472      .   S
    Zr2    O114      3.34357      .   S
    N111   O115      2.32343      .   S
    Zr4    O115      3.34023  1_455   S
    N116   O117      2.34463      .   S
    Zr12   O117      3.37978  1_444   S
    N116   O118      2.34335      .   S
    Zr11   O118      3.37475      .   S
    N116   O119      2.31929      .   S
    Zr3    O119      3.33845      .   S
    N116   O120      2.31805      .   S
    Zr5    O120      3.33501  1_455   S
    N121   O122      2.33937      .   S
    Zr15   O122      3.37499  1_554   S
    N121   O123      2.33785      .   S
    Zr8    O123      3.36945      .   S
    N121   O124      2.32488      .   S
    Zr0    O124      3.34373      .   S
    N121   O125      2.32333      .   S
    Zr6    O125      3.33992      .   S
    N126   O127      2.33919      .   S
    Zr14   O127      3.37456  1_544   S
    N126   O128      2.33805      .   S
    Zr9    O128      3.36961      .   S
    N126   O129      2.32461      .   S
    Zr1    O129      3.34330      .   S
    N126   O130      2.32338      .   S
    Zr7    O130      3.34023      .   S
    N131   O132      2.32520      .   S
    Zr13   O132      3.34491  1_554   S
    N131   O133      2.32330      .   S
    Zr8    O133      3.33967      .   S
    N131   O134      2.33943      .   S
    Zr1    O134      3.37485      .   S
    N131   O135      2.33795      .   S
    Zr5    O135      3.36943      .   S
    N136   O137      2.32521      .   S
    Zr14   O137      3.34466  1_554   S
    N136   O138      2.32330      .   S
    Zr11   O138      3.33968  1_565   S
    N136   O139      2.33935      .   S
    Zr2    O139      3.37480      .   S
    N136   O140      2.33792      .   S
    Zr6    O140      3.36973      .   S
    N141   O142      2.32344      .   S
    Zr9    O142      3.33976  1_565   S
    N141   O143      2.33776      .   S
    Zr4    O143      3.36955      .   S
    N141   O144      2.32533      .   S
    Zr12   O144      3.34465  1_554   S
    N141   O145      2.33929      .   S
    Zr0    O145      3.37467      .   S
    N146   O147      2.32525      .   S
    Zr15   O147      3.34463  1_554   S
    N146   O148      2.32332      .   S
    Zr10   O148      3.33970      .   S
    N146   O149      2.33941      .   S
    Zr3    O149      3.37472      .   S
    N146   O150      2.33783      .   S
    Zr7    O150      3.36965      .   S
    N151   O152      2.32166      .   S
    Zr13   O152      3.33737  1_455   S
    N151   O153      2.33772      .   S
    Zr2    O153      3.36872      .   S
    N151   O154      2.32538      .   S
    Zr10   O154      3.34546  1_556   S
    N151   O155      2.34064      .   S
    Zr4    O155      3.37678  1_455   S
    N156   O157      2.33923      .   S
    Zr11   O157      3.37502  1_566   S
    N156   O158      2.33718      .   S
    Zr14   O158      3.36844      .   S
    N156   O159      2.32536      .   S
    Zr6    O159      3.34529      .   S
    N156   O160      2.32329      .   S
    Zr2    O160      3.33954      .   S
    N161   O162      2.33932      .   S
    Zr10   O162      3.37495  1_556   S
    N161   O163      2.33860      .   S
    Zr15   O163      3.36739      .   S
    N161   O164      2.32536      .   S
    Zr7    O164      3.34445      .   S
    N161   O165      2.32311      .   S
    Zr3    O165      3.33938      .   S
    N166   O167      2.33982      .   S
    Zr9    O167      3.37492  1_566   S
    N166   O168      2.33738      .   S
    Zr12   O168      3.36861      .   S
    N166   O169      2.32525      .   S
    Zr4    O169      3.34445      .   S
    N166   O170      2.32281      .   S
    Zr0    O170      3.33890      .   S
    N171   O172      2.33955      .   S
    Zr8    O172      3.37530  1_556   S
    N171   O173      2.33761      .   S
    Zr13   O173      3.36890      .   S
    N171   O174      2.32528      .   S
    Zr5    O174      3.34448      .   S
    N171   O175      2.32296      .   S
    Zr1    O175      3.33935      .   S
