# CIF file generated by openbabel 2.4.90, see http://openbabel.sf.net
data_I
_chemical_name_common ''
_cell_length_a 14.788
_cell_length_b 18.115
_cell_length_c 19.486
_cell_angle_alpha 90.005
_cell_angle_beta 89.99
_cell_angle_gamma 90.07
_space_group_name_H-M_alt 'P 1'
_space_group_name_Hall 'P 1'
loop_
    _symmetry_equiv_pos_as_xyz
    x,y,z
loop_
    _atom_site_label
    _atom_site_type_symbol
    _atom_site_fract_x
    _atom_site_fract_y
    _atom_site_fract_z
    _atom_site_occupancy
    Zr0     Zr   0.32442   0.25009   0.49972   1.000
    Zr1     Zr   0.32448   0.75013   0.49979   1.000
    Zr2     Zr   0.82445   0.25011   0.49978   1.000
    Zr3     Zr   0.82447   0.75011   0.49975   1.000
    Zr4     Zr   0.07444   0.24991   0.50017   1.000
    Zr5     Zr   0.07446   0.74993   0.50020   1.000
    Zr6     Zr   0.57442   0.24993   0.50021   1.000
    Zr7     Zr   0.57448   0.74991   0.50017   1.000
    Zr8     Zr   0.32427   0.49997   0.99970   1.000
    Zr9     Zr   0.32428   0.99997   0.99968   1.000
    Zr10    Zr   0.82428   0.49996   0.99969   1.000
    Zr11    Zr   0.82429   0.99997   0.99971   1.000
    Zr12    Zr   0.07429   0.00006   0.00024   1.000
    Zr13    Zr   0.07427   0.50005   0.00029   1.000
    Zr14    Zr   0.57429   0.00005   0.00028   1.000
    Zr15    Zr   0.57428   0.50006   0.00025   1.000
    N16     N    0.94942   0.87023   0.24648   1.000
    O17     O    0.89942   0.82675   0.35286   1.000
    O18     O    0.89878   0.91639   0.14197   1.000
    O19     O    0.99940   0.91642   0.14195   1.000
    O20     O    0.00005   0.82658   0.35275   1.000
    N21     N    0.44939   0.37022   0.24646   1.000
    O22     O    0.39874   0.41638   0.14196   1.000
    O23     O    0.49937   0.41641   0.14194   1.000
    O24     O    0.50003   0.32658   0.35274   1.000
    O25     O    0.39940   0.32673   0.35284   1.000
    N26     N    0.44935   0.87023   0.24643   1.000
    O27     O    0.49934   0.91642   0.14194   1.000
    O28     O    0.39937   0.82676   0.35285   1.000
    O29     O    0.39872   0.91639   0.14193   1.000
    O30     O    0.50001   0.82658   0.35272   1.000
    N31     N    0.94958   0.37980   0.74649   1.000
    O32     O    0.00001   0.42340   0.85282   1.000
    O33     O    0.89939   0.42331   0.85282   1.000
    O34     O    0.89907   0.33365   0.64196   1.000
    O35     O    0.99968   0.33360   0.64197   1.000
    N36     N    0.94948   0.87980   0.74585   1.000
    O37     O    0.99997   0.92341   0.85248   1.000
    O38     O    0.89934   0.92331   0.85251   1.000
    O39     O    0.89896   0.83366   0.64164   1.000
    O40     O    0.99958   0.83360   0.64164   1.000
    N41     N    0.44942   0.37981   0.74647   1.000
    O42     O    0.49994   0.42341   0.85278   1.000
    O43     O    0.39930   0.42331   0.85282   1.000
    O44     O    0.39888   0.33366   0.64194   1.000
    O45     O    0.49951   0.33361   0.64195   1.000
    N46     N    0.44961   0.87980   0.74648   1.000
    O47     O    0.50004   0.92340   0.85281   1.000
    O48     O    0.39940   0.92331   0.85282   1.000
    O49     O    0.39911   0.83366   0.64195   1.000
    O50     O    0.49974   0.83360   0.64197   1.000
    N51     N    0.19935   0.62981   0.75347   1.000
    O52     O    0.14875   0.58365   0.85801   1.000
    O53     O    0.24938   0.58361   0.85799   1.000
    O54     O    0.24997   0.67344   0.64719   1.000
    O55     O    0.14933   0.67331   0.64711   1.000
    N56     N    0.69938   0.12980   0.75348   1.000
    O57     O    0.64879   0.08364   0.85802   1.000
    O58     O    0.74942   0.08360   0.85799   1.000
    O59     O    0.74997   0.17343   0.64719   1.000
    O60     O    0.64933   0.17331   0.64713   1.000
    N61     N    0.19938   0.12978   0.75342   1.000
    O62     O    0.24941   0.08360   0.85795   1.000
    O63     O    0.14934   0.17328   0.64707   1.000
    O64     O    0.14879   0.08363   0.85797   1.000
    O65     O    0.24996   0.17340   0.64713   1.000
    N66     N    0.69939   0.62980   0.75345   1.000
    O67     O    0.64880   0.58364   0.85799   1.000
    O68     O    0.74942   0.58360   0.85797   1.000
    O69     O    0.74999   0.67342   0.64715   1.000
    O70     O    0.64936   0.67329   0.64709   1.000
    N71     N    0.94933   0.37022   0.24642   1.000
    O72     O    0.99932   0.41641   0.14193   1.000
    O73     O    0.89935   0.32675   0.35284   1.000
    O74     O    0.89870   0.41638   0.14193   1.000
    O75     O    0.99998   0.32657   0.35271   1.000
    N76     N    0.69955   0.12022   0.25345   1.000
    O77     O    0.75003   0.07661   0.14716   1.000
    O78     O    0.64940   0.07671   0.14713   1.000
    O79     O    0.64899   0.16637   0.35798   1.000
    O80     O    0.74962   0.16642   0.35800   1.000
    N81     N    0.69956   0.62023   0.25343   1.000
    O82     O    0.75003   0.57662   0.14713   1.000
    O83     O    0.64939   0.57673   0.14703   1.000
    O84     O    0.64903   0.66637   0.35797   1.000
    O85     O    0.74965   0.66643   0.35797   1.000
    N86     N    0.19951   0.12023   0.25344   1.000
    O87     O    0.25001   0.07662   0.14711   1.000
    O88     O    0.14938   0.07673   0.14710   1.000
    O89     O    0.14896   0.16637   0.35796   1.000
    O90     O    0.24957   0.16642   0.35796   1.000
    N91     N    0.19959   0.62023   0.25349   1.000
    O92     O    0.25004   0.57662   0.14717   1.000
    O93     O    0.14941   0.57672   0.14715   1.000
    O94     O    0.14905   0.66638   0.35802   1.000
    O95     O    0.24969   0.66643   0.35801   1.000
    C96     C    0.44921   0.66938   0.50487   1.000
    O97     O    0.48056   0.69620   0.50320   1.000
    O98     O    0.41806   0.69626   0.50311   1.000
    C99     C    0.69946   0.83066   0.49511   1.000
    O100    O    0.66821   0.80378   0.49686   1.000
    O101    O    0.73071   0.80383   0.49676   1.000
    C102    C    0.94921   0.66938   0.50487   1.000
    O103    O    0.98055   0.69621   0.50318   1.000
    O104    O    0.91806   0.69625   0.50307   1.000
    C105    C    0.19945   0.83066   0.49501   1.000
    O106    O    0.16820   0.80379   0.49683   1.000
    O107    O    0.23071   0.80385   0.49673   1.000
    C108    C    0.19910   0.91938   0.99510   1.000
    O109    O    0.23041   0.94622   0.99672   1.000
    O110    O    0.16792   0.94624   0.99686   1.000
    C111    C    0.69911   0.91938   0.99504   1.000
    O112    O    0.73042   0.94621   0.99670   1.000
    O113    O    0.66792   0.94624   0.99684   1.000
    C114    C    0.44934   0.08064   0.00145   1.000
    O115    O    0.41807   0.05378   0.00136   1.000
    O116    O    0.48057   0.05381   0.00152   1.000
    C117    C    0.94935   0.08065   0.00145   1.000
    O118    O    0.91808   0.05379   0.00137   1.000
    O119    O    0.98058   0.05381   0.00151   1.000
    C120    C    0.19909   0.41937   0.99506   1.000
    O121    O    0.23041   0.44621   0.99672   1.000
    O122    O    0.16791   0.44623   0.99687   1.000
    C123    C    0.69910   0.41937   0.99511   1.000
    O124    O    0.73041   0.44621   0.99674   1.000
    O125    O    0.66792   0.44623   0.99688   1.000
    C126    C    0.44933   0.58065   0.00145   1.000
    O127    O    0.41806   0.55379   0.00137   1.000
    O128    O    0.48056   0.55382   0.00151   1.000
    C129    C    0.94934   0.58065   0.00145   1.000
    O130    O    0.91807   0.55379   0.00137   1.000
    O131    O    0.98056   0.55381   0.00152   1.000
    C132    C    0.44918   0.16938   0.50493   1.000
    O133    O    0.48052   0.19620   0.50324   1.000
    O134    O    0.41802   0.19624   0.50311   1.000
    C135    C    0.94920   0.16938   0.50490   1.000
    O136    O    0.98054   0.19620   0.50321   1.000
    O137    O    0.91804   0.19625   0.50312   1.000
    C138    C    0.69944   0.33066   0.49507   1.000
    O139    O    0.66818   0.30379   0.49687   1.000
    O140    O    0.73069   0.30384   0.49676   1.000
    C141    C    0.19943   0.33066   0.49524   1.000
    O142    O    0.16818   0.30378   0.49693   1.000
    O143    O    0.23067   0.30382   0.49681   1.000
loop_
    _geom_bond_atom_site_label_1
    _geom_bond_atom_site_label_2
    _geom_bond_distance
    _geom_bond_site_symmetry_2
    _ccdc_geom_bond_type
    N16    O17       2.33716      .   S
    Zr3    O17       3.36816      .   S
    N16    O18       2.32593      .   S
    Zr11   O18       3.34597  1_556   S
    N16    O19       2.32240      .   S
    Zr12   O19       3.33817  1_445   S
    N16    O20       2.34010  1_655   S
    Zr5    O20       3.37634      .   S
    N21    O22       2.32588      .   S
    Zr8    O22       3.34597  1_556   S
    N21    O23       2.32230      .   S
    Zr15   O23       3.33800      .   S
    N21    O24       2.34022      .   S
    Zr6    O24       3.37653      .   S
    N21    O25       2.33705      .   S
    Zr0    O25       3.36824      .   S
    N26    O27       2.32178      .   S
    Zr14   O27       3.33749  1_545   S
    N26    O28       2.33768      .   S
    Zr1    O28       3.36866      .   S
    N26    O29       2.32553      .   S
    Zr9    O29       3.34569  1_556   S
    N26    O30       2.34063      .   S
    Zr7    O30       3.37683      .   S
    N31    O32       2.33920  1_655   S
    Zr13   O32       3.37469  1_554   S
    N31    O33       2.33793      .   S
    Zr10   O33       3.36958      .   S
    N31    O34       2.32472      .   S
    Zr2    O34       3.34357      .   S
    N31    O35       2.32343      .   S
    Zr4    O35       3.34023  1_455   S
    N36    O37       2.34463      .   S
    Zr12   O37       3.37978  1_444   S
    N36    O38       2.34335      .   S
    Zr11   O38       3.37475      .   S
    N36    O39       2.31929      .   S
    Zr3    O39       3.33845      .   S
    N36    O40       2.31805      .   S
    Zr5    O40       3.33501  1_455   S
    N41    O42       2.33937      .   S
    Zr15   O42       3.37499  1_554   S
    N41    O43       2.33785      .   S
    Zr8    O43       3.36945      .   S
    N41    O44       2.32488      .   S
    Zr0    O44       3.34373      .   S
    N41    O45       2.32333      .   S
    Zr6    O45       3.33992      .   S
    N46    O47       2.33919      .   S
    Zr14   O47       3.37456  1_544   S
    N46    O48       2.33805      .   S
    Zr9    O48       3.36961      .   S
    N46    O49       2.32461      .   S
    Zr1    O49       3.34330      .   S
    N46    O50       2.32338      .   S
    Zr7    O50       3.34023      .   S
    N51    O52       2.32520      .   S
    Zr13   O52       3.34491  1_554   S
    N51    O53       2.32330      .   S
    Zr8    O53       3.33967      .   S
    N51    O54       2.33943      .   S
    Zr1    O54       3.37485      .   S
    N51    O55       2.33795      .   S
    Zr5    O55       3.36943      .   S
    N56    O57       2.32521      .   S
    Zr14   O57       3.34466  1_554   S
    N56    O58       2.32330      .   S
    Zr11   O58       3.33968  1_565   S
    N56    O59       2.33935      .   S
    Zr2    O59       3.37480      .   S
    N56    O60       2.33792      .   S
    Zr6    O60       3.36973      .   S
    N61    O62       2.32344      .   S
    Zr9    O62       3.33976  1_565   S
    N61    O63       2.33776      .   S
    Zr4    O63       3.36955      .   S
    N61    O64       2.32533      .   S
    Zr12   O64       3.34465  1_554   S
    N61    O65       2.33929      .   S
    Zr0    O65       3.37467      .   S
    N66    O67       2.32525      .   S
    Zr15   O67       3.34463  1_554   S
    N66    O68       2.32332      .   S
    Zr10   O68       3.33970      .   S
    N66    O69       2.33941      .   S
    Zr3    O69       3.37472      .   S
    N66    O70       2.33783      .   S
    Zr7    O70       3.36965      .   S
    N71    O72       2.32166      .   S
    Zr13   O72       3.33737  1_455   S
    N71    O73       2.33772      .   S
    Zr2    O73       3.36872      .   S
    N71    O74       2.32538      .   S
    Zr10   O74       3.34546  1_556   S
    N71    O75       2.34064      .   S
    Zr4    O75       3.37678  1_455   S
    N76    O77       2.33923      .   S
    Zr11   O77       3.37502  1_566   S
    N76    O78       2.33718      .   S
    Zr14   O78       3.36844      .   S
    N76    O79       2.32536      .   S
    Zr6    O79       3.34529      .   S
    N76    O80       2.32329      .   S
    Zr2    O80       3.33954      .   S
    N81    O82       2.33932      .   S
    Zr10   O82       3.37495  1_556   S
    N81    O83       2.33860      .   S
    Zr15   O83       3.36739      .   S
    N81    O84       2.32536      .   S
    Zr7    O84       3.34445      .   S
    N81    O85       2.32311      .   S
    Zr3    O85       3.33938      .   S
    N86    O87       2.33982      .   S
    Zr9    O87       3.37492  1_566   S
    N86    O88       2.33738      .   S
    Zr12   O88       3.36861      .   S
    N86    O89       2.32525      .   S
    Zr4    O89       3.34445      .   S
    N86    O90       2.32281      .   S
    Zr0    O90       3.33890      .   S
    N91    O92       2.33955      .   S
    Zr8    O92       3.37530  1_556   S
    N91    O93       2.33761      .   S
    Zr13   O93       3.36890      .   S
    N91    O94       2.32528      .   S
    Zr5    O94       3.34448      .   S
    N91    O95       2.32296      .   S
    Zr1    O95       3.33935      .   S
    C96    O97       0.67191      .   S
    Zr7    O97       1.69582      .   S
    C96    O98       0.67155      .   S
    Zr1    O98       1.69555      .   S
    C99    O100      0.67166      .   S
    Zr7    O100      1.69537      .   S
    C99    O101      0.67179      .   S
    Zr3    O101      1.69593      .   S
    C102   O103      0.67190      .   S
    Zr5    O103      1.69571  1_455   S
    C102   O104      0.67154      .   S
    Zr3    O104      1.69556      .   S
    C105   O106      0.67171      .   S
    Zr5    O106      1.69554      .   S
    C105   O107      0.67182      .   S
    Zr1    O107      1.69608      .   S
    C108   O109      0.67178      .   S
    Zr9    O109      1.69561      .   S
    C108   O110      0.67161      .   S
    Zr12   O110      1.69561  1_544   S
    C111   O112      0.67179      .   S
    Zr11   O112      1.69565      .   S
    C111   O113      0.67162      .   S
    Zr14   O113      1.69566  1_544   S
    C114   O115      0.67079      .   S
    Zr9    O115      1.69457  1_566   S
    C114   O116      0.67097      .   S
    Zr14   O116      1.69500      .   S
    C117   O118      0.67082      .   S
    Zr11   O118      1.69461  1_566   S
    C117   O119      0.67092      .   S
    Zr12   O119      1.69486  1_455   S
    C120   O121      0.67179      .   S
    Zr8    O121      1.69562      .   S
    C120   O122      0.67168      .   S
    Zr13   O122      1.69576  1_554   S
    C123   O124      0.67178      .   S
    Zr10   O124      1.69560      .   S
    C123   O125      0.67168      .   S
    Zr15   O125      1.69574  1_554   S
    C126   O127      0.67085      .   S
    Zr8    O127      1.69473  1_556   S
    C126   O128      0.67093      .   S
    Zr15   O128      1.69498      .   S
    C129   O130      0.67085      .   S
    Zr10   O130      1.69470  1_556   S
    C129   O131      0.67093      .   S
    Zr13   O131      1.69484  1_455   S
    C132   O133      0.67191      .   S
    Zr6    O133      1.69582      .   S
    C132   O134      0.67157      .   S
    Zr0    O134      1.69563      .   S
    C135   O136      0.67183      .   S
    Zr4    O136      1.69562  1_455   S
    C135   O137      0.67158      .   S
    Zr2    O137      1.69559      .   S
    C138   O139      0.67174      .   S
    Zr6    O139      1.69559      .   S
    C138   O140      0.67180      .   S
    Zr2    O140      1.69606      .   S
    C141   O142      0.67170      .   S
    Zr4    O142      1.69541      .   S
    C141   O143      0.67177      .   S
    Zr0    O143      1.69588      .   S
