# CIF file generated by openbabel 2.4.90, see http://openbabel.sf.net
data_I
_chemical_name_common ''
_cell_length_a 21.85
_cell_length_b 21.892
_cell_length_c 13.972
_cell_angle_alpha 95.2
_cell_angle_beta 99.23
_cell_angle_gamma 99.89
_space_group_name_H-M_alt 'P 1'
_space_group_name_Hall 'P 1'
loop_
    _symmetry_equiv_pos_as_xyz
    x,y,z
loop_
    _atom_site_label
    _atom_site_type_symbol
    _atom_site_fract_x
    _atom_site_fract_y
    _atom_site_fract_z
    _atom_site_occupancy
    N0      N    0.18412   0.11825   0.79105   1.000
    N1      N    0.68960   0.11828   0.79098   1.000
    N2      N    0.17841   0.62050   0.79104   1.000
    N3      N    0.68386   0.62053   0.79101   1.000
    N4      N    0.14396   0.37445   0.27706   1.000
    N5      N    0.13584   0.87777   0.27706   1.000
    N6      N    0.64968   0.37455   0.27697   1.000
    N7      N    0.64120   0.87788   0.27699   1.000
    N8      N    0.93635   0.36757   0.78235   1.000
    N9      N    0.42531   0.87107   0.78278   1.000
    N10     N    0.92787   0.87114   0.78236   1.000
    N11     N    0.43455   0.36748   0.78280   1.000
    N12     N    0.34832   0.40488   0.22397   1.000
    N13     N    0.34258   0.90713   0.22395   1.000
    N14     N    0.85377   0.40491   0.22391   1.000
    N15     N    0.84807   0.90716   0.22394   1.000
    N16     N    0.10348   0.15427   0.23263   1.000
    N17     N    0.09423   0.65784   0.23259   1.000
    N18     N    0.60687   0.15433   0.23219   1.000
    N19     N    0.59763   0.65793   0.23218   1.000
    N20     N    0.39099   0.14721   0.73800   1.000
    N21     N    0.38251   0.65087   0.73800   1.000
    N22     N    0.89517   0.14732   0.73793   1.000
    N23     N    0.88752   0.65096   0.73788   1.000
    Zr24    Zr   0.85030   0.65711   0.22830   1.000
    O25     O    0.86380   0.65812   0.40081   1.000
    O26     O    0.86072   0.65510   0.06259   1.000
    Zr27    Zr   0.34470   0.65709   0.22831   1.000
    O28     O    0.35510   0.65502   0.06259   1.000
    O29     O    0.35847   0.65808   0.40087   1.000
    Zr30    Zr   0.17265   0.87189   0.78669   1.000
    O31     O    0.16233   0.87383   0.95239   1.000
    O32     O    0.15925   0.87082   0.61417   1.000
    Zr33    Zr   0.68749   0.36832   0.78668   1.000
    O34     O    0.67371   0.36733   0.61412   1.000
    O35     O    0.67708   0.37039   0.95239   1.000
    Zr36    Zr   0.67825   0.87191   0.78668   1.000
    O37     O    0.66804   0.87391   0.95240   1.000
    O38     O    0.66467   0.87085   0.61412   1.000
    Zr39    Zr   0.18188   0.36829   0.78669   1.000
    O40     O    0.17128   0.37031   0.95238   1.000
    O41     O    0.16821   0.36729   0.61417   1.000
    Zr42    Zr   0.35393   0.15349   0.22831   1.000
    O43     O    0.36414   0.15142   0.06259   1.000
    O44     O    0.36751   0.15447   0.40086   1.000
    Zr45    Zr   0.85953   0.15352   0.22830   1.000
    O46     O    0.86956   0.15149   0.06260   1.000
    O47     O    0.87264   0.15451   0.40082   1.000
    O48     O    0.60296   0.87050   0.78381   1.000
    O49     O    0.24784   0.87281   0.78651   1.000
    O50     O    0.25708   0.36922   0.78652   1.000
    O51     O    0.10844   0.36692   0.78374   1.000
    O52     O    0.18192   0.44328   0.78914   1.000
    O53     O    0.18183   0.29396   0.78744   1.000
    O54     O    0.35024   0.07998   0.22585   1.000
    O55     O    0.34481   0.73142   0.22752   1.000
    O56     O    0.61220   0.36691   0.78382   1.000
    O57     O    0.76170   0.36925   0.78639   1.000
    O58     O    0.68744   0.44330   0.78913   1.000
    O59     O    0.68737   0.29399   0.78739   1.000
    O60     O    0.75266   0.87283   0.78639   1.000
    O61     O    0.67901   0.79724   0.78744   1.000
    O62     O    0.68194   0.94543   0.78912   1.000
    O63     O    0.35317   0.22817   0.22755   1.000
    O64     O    0.34474   0.58211   0.22586   1.000
    O65     O    0.17349   0.79722   0.78744   1.000
    O66     O    0.09939   0.87050   0.78374   1.000
    O67     O    0.17642   0.94541   0.78914   1.000
    O68     O    0.27931   0.15257   0.22860   1.000
    O69     O    0.42922   0.15491   0.23117   1.000
    O70     O    0.85869   0.22819   0.22754   1.000
    O71     O    0.85576   0.08000   0.22585   1.000
    O72     O    0.93258   0.15490   0.23125   1.000
    O73     O    0.78434   0.15260   0.22847   1.000
    O74     O    0.85026   0.58213   0.22584   1.000
    O75     O    0.27008   0.65615   0.22859   1.000
    O76     O    0.92334   0.65848   0.23124   1.000
    O77     O    0.85035   0.73145   0.22755   1.000
    O78     O    0.41998   0.65850   0.23117   1.000
    O79     O    0.77510   0.65619   0.22847   1.000
loop_
    _geom_bond_atom_site_label_1
    _geom_bond_atom_site_label_2
    _geom_bond_distance
    _geom_bond_site_symmetry_2
    _ccdc_geom_bond_type
    Zr24   O25       2.37847      .   S
    N23    O25       4.67455      .   S
    Zr24   O26       2.35983      .   S
    N23    O26       4.66149  1_556   S
    Zr27   O28       2.35962      .   S
    N21    O28       4.66373  1_556   S
    Zr27   O29       2.37901      .   S
    N21    O29       4.67532      .   S
    Zr30   O31       2.35913      .   S
    N5     O31       4.65929  1_554   S
    Zr30   O32       2.37859      .   S
    N5     O32       4.67478      .   S
    Zr33   O34       2.37908      .   S
    N6     O34       4.67554      .   S
    Zr33   O35       2.35954      .   S
    N6     O35       4.66351  1_554   S
    Zr36   O37       2.35861      .   S
    N7     O37       4.66031  1_554   S
    Zr36   O38       2.37903      .   S
    N7     O38       4.67533      .   S
    Zr39   O40       2.36049      .   S
    N4     O40       4.66442  1_554   S
    Zr39   O41       2.37849      .   S
    N4     O41       4.67457      .   S
    Zr42   O43       2.35854      .   S
    N20    O43       4.66014  1_556   S
    Zr42   O44       2.37914      .   S
    N20    O44       4.67608      .   S
    Zr45   O46       2.35742      .   S
    N22    O46       4.65365  1_556   S
    Zr45   O47       2.37902      .   S
    N22    O47       4.67643      .   S
    N9     O48       3.88166      .   S
    Zr36   O48       1.63400      .   S
    N9     O49       3.89293      .   S
    Zr30   O49       1.63999      .   S
    Zr39   O50       1.64001      .   S
    N11    O50       3.89297      .   S
    Zr39   O51       1.59372      .   S
    N8     O51       3.75959  1_655   S
    Zr39   O52       1.63858      .   S
    N2     O52       3.89143      .   S
    Zr39   O53       1.62814      .   S
    N0     O53       3.86040      .   S
    N13    O54       3.75638  1_565   S
    Zr42   O54       1.59454      .   S
    N13    O55       3.85992      .   S
    Zr27   O55       1.62799      .   S
    Zr33   O56       1.63397      .   S
    N11    O56       3.88161      .   S
    Zr33   O57       1.61899      .   S
    N8     O57       3.83188      .   S
    Zr33   O58       1.63883      .   S
    N3     O58       3.89181      .   S
    Zr33   O59       1.62792      .   S
    N1     O59       3.85999      .   S
    Zr36   O60       1.62315      .   S
    N10    O60       3.84434      .   S
    Zr36   O61       1.63864      .   S
    N3     O61       3.89274      .   S
    Zr36   O62       1.59455      .   S
    N1     O62       3.75647  1_545   S
    N12    O63       3.89276      .   S
    Zr42   O63       1.63866      .   S
    N12    O64       3.89184      .   S
    Zr27   O64       1.63886      .   S
    Zr30   O65       1.63887      .   S
    N2     O65       3.89328      .   S
    Zr30   O66       1.58955      .   S
    N10    O66       3.74711  1_655   S
    Zr30   O67       1.59436      .   S
    N0     O67       3.75607  1_545   S
    Zr42   O68       1.62769      .   S
    N16    O68       3.85801      .   S
    Zr42   O69       1.63401      .   S
    N18    O69       3.88168      .   S
    Zr45   O70       1.63890      .   S
    N14    O70       3.89336      .   S
    Zr45   O71       1.59433      .   S
    N15    O71       3.75602  1_565   S
    Zr45   O72       1.58501      .   S
    N16    O72       3.73345  1_455   S
    Zr45   O73       1.63998      .   S
    N18    O73       3.89290      .   S
    N14    O74       3.89137      .   S
    Zr24   O74       1.63853      .   S
    N17    O75       3.85800      .   S
    Zr27   O75       1.62767      .   S
    N17    O76       3.73346  1_455   S
    Zr24   O76       1.58501      .   S
    N15    O77       3.86043      .   S
    Zr24   O77       1.62817      .   S
    Zr27   O78       1.63397      .   S
    N19    O78       3.88162      .   S
    Zr24   O79       1.64001      .   S
    N19    O79       3.89298      .   S
