# CIF file generated by openbabel 2.4.90, see http://openbabel.sf.net
data_I
_chemical_name_common ''
_cell_length_a 21.85
_cell_length_b 21.892
_cell_length_c 13.972
_cell_angle_alpha 95.2
_cell_angle_beta 99.23
_cell_angle_gamma 99.89
_space_group_name_H-M_alt 'P 1'
_space_group_name_Hall 'P 1'
loop_
    _symmetry_equiv_pos_as_xyz
    x,y,z
loop_
    _atom_site_label
    _atom_site_type_symbol
    _atom_site_fract_x
    _atom_site_fract_y
    _atom_site_fract_z
    _atom_site_occupancy
    N0      N    0.18412   0.11825   0.79105   1.000
    N1      N    0.68960   0.11828   0.79098   1.000
    N2      N    0.17841   0.62050   0.79104   1.000
    N3      N    0.68386   0.62053   0.79101   1.000
    N4      N    0.14396   0.37445   0.27706   1.000
    N5      N    0.13584   0.87777   0.27706   1.000
    N6      N    0.64968   0.37455   0.27697   1.000
    N7      N    0.64120   0.87788   0.27699   1.000
    N8      N    0.93635   0.36757   0.78235   1.000
    N9      N    0.42531   0.87107   0.78278   1.000
    N10     N    0.92787   0.87114   0.78236   1.000
    N11     N    0.43455   0.36748   0.78280   1.000
    N12     N    0.34832   0.40488   0.22397   1.000
    N13     N    0.34258   0.90713   0.22395   1.000
    N14     N    0.85377   0.40491   0.22391   1.000
    N15     N    0.84807   0.90716   0.22394   1.000
    N16     N    0.10348   0.15427   0.23263   1.000
    N17     N    0.09423   0.65784   0.23259   1.000
    N18     N    0.60687   0.15433   0.23219   1.000
    N19     N    0.59763   0.65793   0.23218   1.000
    N20     N    0.39099   0.14721   0.73800   1.000
    N21     N    0.38251   0.65087   0.73800   1.000
    N22     N    0.89517   0.14732   0.73793   1.000
    N23     N    0.88752   0.65096   0.73788   1.000
    Zr24    Zr   0.85030   0.65711   0.22830   1.000
    O25     O    0.92651   0.66070   0.25480   1.000
    O26     O    0.85388   0.73377   0.25106   1.000
    O27     O    0.85340   0.58436   0.24940   1.000
    O28     O    0.86380   0.65812   0.40081   1.000
    O29     O    0.77833   0.65873   0.25201   1.000
    O30     O    0.84682   0.72912   0.20403   1.000
    O31     O    0.84711   0.57990   0.20228   1.000
    O32     O    0.86072   0.65510   0.06259   1.000
    O33     O    0.92017   0.65627   0.20768   1.000
    O34     O    0.77188   0.65365   0.20494   1.000
    Zr35    Zr   0.34470   0.65709   0.22831   1.000
    O36     O    0.34110   0.72907   0.20402   1.000
    O37     O    0.35510   0.65502   0.06259   1.000
    O38     O    0.34151   0.57986   0.20228   1.000
    O39     O    0.26671   0.65357   0.20505   1.000
    O40     O    0.41665   0.65627   0.20760   1.000
    O41     O    0.34852   0.73377   0.25103   1.000
    O42     O    0.34798   0.58435   0.24944   1.000
    O43     O    0.27345   0.65874   0.25212   1.000
    O44     O    0.42332   0.66073   0.25474   1.000
    O45     O    0.35847   0.65808   0.40087   1.000
    Zr46    Zr   0.17265   0.87189   0.78669   1.000
    O47     O    0.16233   0.87383   0.95239   1.000
    O48     O    0.17703   0.79954   0.81095   1.000
    O49     O    0.10256   0.87272   0.80730   1.000
    O50     O    0.25107   0.87535   0.81005   1.000
    O51     O    0.17957   0.94764   0.81271   1.000
    O52     O    0.09623   0.86829   0.76018   1.000
    O53     O    0.24461   0.87027   0.76298   1.000
    O54     O    0.17327   0.94318   0.76558   1.000
    O55     O    0.15925   0.87082   0.61417   1.000
    O56     O    0.16995   0.79489   0.76393   1.000
    Zr57    Zr   0.68749   0.36832   0.78668   1.000
    O58     O    0.60886   0.36468   0.76025   1.000
    O59     O    0.67371   0.36733   0.61412   1.000
    O60     O    0.75833   0.36667   0.76284   1.000
    O61     O    0.68366   0.29164   0.76382   1.000
    O62     O    0.68420   0.44106   0.76555   1.000
    O63     O    0.76507   0.37184   0.80993   1.000
    O64     O    0.67708   0.37039   0.95239   1.000
    O65     O    0.61553   0.36914   0.80739   1.000
    O66     O    0.69067   0.44554   0.81271   1.000
    O67     O    0.69108   0.29634   0.81096   1.000
    Zr68    Zr   0.67825   0.87191   0.78668   1.000
    O69     O    0.60629   0.87272   0.80739   1.000
    O70     O    0.66804   0.87391   0.95240   1.000
    O71     O    0.75603   0.87542   0.80993   1.000
    O72     O    0.68272   0.79959   0.81096   1.000
    O73     O    0.68517   0.94767   0.81270   1.000
    O74     O    0.59963   0.86827   0.76024   1.000
    O75     O    0.66467   0.87085   0.61412   1.000
    O76     O    0.74929   0.87025   0.76285   1.000
    O77     O    0.67871   0.94319   0.76554   1.000
    O78     O    0.67531   0.79489   0.76392   1.000
    Zr79    Zr   0.18188   0.36829   0.78669   1.000
    O80     O    0.17128   0.37031   0.95238   1.000
    O81     O    0.26030   0.37175   0.81005   1.000
    O82     O    0.18507   0.44551   0.81270   1.000
    O83     O    0.11161   0.36914   0.80730   1.000
    O84     O    0.18536   0.29629   0.81095   1.000
    O85     O    0.16821   0.36729   0.61417   1.000
    O86     O    0.10527   0.36471   0.76018   1.000
    O87     O    0.17878   0.44105   0.76558   1.000
    O88     O    0.25385   0.36668   0.76298   1.000
    O89     O    0.17830   0.29163   0.76392   1.000
    Zr90    Zr   0.35393   0.15349   0.22831   1.000
    O91     O    0.34701   0.07773   0.20227   1.000
    O92     O    0.34946   0.22582   0.20402   1.000
    O93     O    0.36414   0.15142   0.06259   1.000
    O94     O    0.42589   0.15268   0.20760   1.000
    O95     O    0.27595   0.14999   0.20506   1.000
    O96     O    0.35347   0.08222   0.24944   1.000
    O97     O    0.36751   0.15447   0.40086   1.000
    O98     O    0.35687   0.23052   0.25107   1.000
    O99     O    0.28268   0.15515   0.25214   1.000
    O100    O    0.43255   0.15713   0.25474   1.000
    Zr101   Zr   0.85953   0.15352   0.22830   1.000
    O102    O    0.85515   0.22586   0.20402   1.000
    O103    O    0.85261   0.07777   0.20228   1.000
    O104    O    0.86956   0.15149   0.06260   1.000
    O105    O    0.78111   0.15006   0.20494   1.000
    O106    O    0.92941   0.15269   0.20769   1.000
    O107    O    0.87264   0.15451   0.40082   1.000
    O108    O    0.86223   0.23052   0.25106   1.000
    O109    O    0.85891   0.08223   0.24941   1.000
    O110    O    0.78757   0.15514   0.25201   1.000
    O111    O    0.93575   0.15712   0.25481   1.000
loop_
    _geom_bond_atom_site_label_1
    _geom_bond_atom_site_label_2
    _geom_bond_distance
    _geom_bond_site_symmetry_2
    _ccdc_geom_bond_type
    Zr24   O25       1.63351      .   S
    N17    O25       3.73777  1_455   S
    Zr24   O26       1.66558      .   S
    N15    O26       3.87029      .   S
    Zr24   O27       1.65644      .   S
    N14    O27       3.91387      .   S
    Zr24   O28       2.37847      .   S
    N23    O28       4.67455      .   S
    Zr24   O29       1.66364      .   S
    N19    O29       3.91019      .   S
    Zr24   O30       1.65402      .   S
    N15    O30       3.87746      .   S
    Zr24   O31       1.68349      .   S
    N14    O31       3.89557      .   S
    Zr24   O32       2.35983      .   S
    N23    O32       4.66149  1_556   S
    Zr24   O33       1.60139      .   S
    N17    O33       3.75697  1_455   S
    Zr24   O34       1.67922      .   S
    N19    O34       3.90245      .   S
    Zr35   O36       1.65406      .   S
    N13    O36       3.87681      .   S
    Zr35   O37       2.35962      .   S
    N21    O37       4.66373  1_556   S
    Zr35   O38       1.68373      .   S
    N12    O38       3.89624      .   S
    Zr35   O39       1.66973      .   S
    N17    O39       3.86504      .   S
    Zr35   O40       1.64632      .   S
    N19    O40       3.90775      .   S
    Zr35   O41       1.66519      .   S
    N13    O41       3.86994      .   S
    Zr35   O42       1.65697      .   S
    N12    O42       3.91420      .   S
    Zr35   O43       1.64895      .   S
    N17    O43       3.87790      .   S
    Zr35   O44       1.68465      .   S
    N19    O44       3.88227      .   S
    Zr35   O45       2.37901      .   S
    N21    O45       4.67532      .   S
    Zr46   O47       2.35913      .   S
    N5     O47       4.65929  1_554   S
    Zr46   O48       1.66468      .   S
    N2     O48       3.90995      .   S
    Zr46   O49       1.60580      .   S
    N10    O49       3.77063  1_655   S
    Zr46   O50       1.67920      .   S
    N9     O50       3.90241      .   S
    Zr46   O51       1.64073      .   S
    N0     O51       3.76016  1_545   S
    Zr46   O52       1.63800      .   S
    N10    O52       3.75131  1_655   S
    Zr46   O53       1.66361      .   S
    N9     O53       3.91015      .   S
    Zr46   O54       1.61256      .   S
    N0     O54       3.77964  1_545   S
    Zr46   O55       2.37859      .   S
    N5     O55       4.67478      .   S
    Zr46   O56       1.67586      .   S
    N2     O56       3.90325      .   S
    Zr57   O58       1.68465      .   S
    N11    O58       3.88226      .   S
    Zr57   O59       2.37908      .   S
    N6     O59       4.67554      .   S
    Zr57   O60       1.64050      .   S
    N8     O60       3.85181      .   S
    Zr57   O61       1.66542      .   S
    N1     O61       3.87017      .   S
    Zr57   O62       1.65693      .   S
    N3     O62       3.91417      .   S
    Zr57   O63       1.66116      .   S
    N8     O63       3.83910      .   S
    Zr57   O64       2.35954      .   S
    N6     O64       4.66351  1_554   S
    Zr57   O65       1.64631      .   S
    N11    O65       3.90775      .   S
    Zr57   O66       1.68371      .   S
    N3     O66       3.89620      .   S
    Zr57   O67       1.65402      .   S
    N1     O67       3.87686      .   S
    Zr68   O69       1.64634      .   S
    N9     O69       3.90780      .   S
    Zr68   O70       2.35861      .   S
    N7     O70       4.66031  1_554   S
    Zr68   O71       1.66524      .   S
    N10    O71       3.85151      .   S
    Zr68   O72       1.66473      .   S
    N3     O72       3.90925      .   S
    Zr68   O73       1.64092      .   S
    N1     O73       3.76064  1_545   S
    Zr68   O74       1.68469      .   S
    N9     O74       3.88231      .   S
    Zr68   O75       2.37903      .   S
    N7     O75       4.67533      .   S
    Zr68   O76       1.64460      .   S
    N10    O76       3.86423      .   S
    Zr68   O77       1.61285      .   S
    N1     O77       3.78001  1_545   S
    Zr68   O78       1.67551      .   S
    N3     O78       3.90296      .   S
    Zr79   O80       2.36049      .   S
    N4     O80       4.66442  1_554   S
    Zr79   O81       1.67921      .   S
    N11    O81       3.90245      .   S
    Zr79   O82       1.68348      .   S
    N2     O82       3.89567      .   S
    Zr79   O83       1.60993      .   S
    N8     O83       3.78303  1_655   S
    Zr79   O84       1.65396      .   S
    N0     O84       3.87742      .   S
    Zr79   O85       2.37849      .   S
    N4     O85       4.67457      .   S
    Zr79   O86       1.64204      .   S
    N8     O86       3.76378  1_655   S
    Zr79   O87       1.65652      .   S
    N2     O87       3.91389      .   S
    Zr79   O88       1.66364      .   S
    N11    O88       3.91019      .   S
    Zr79   O89       1.66553      .   S
    N0     O89       3.87026      .   S
    Zr90   O91       1.64097      .   S
    N13    O91       3.76048  1_565   S
    Zr90   O92       1.66474      .   S
    N12    O92       3.90927      .   S
    Zr90   O93       2.35854      .   S
    N20    O93       4.66014  1_556   S
    Zr90   O94       1.64637      .   S
    N18    O94       3.90781      .   S
    Zr90   O95       1.66969      .   S
    N16    O95       3.86512      .   S
    Zr90   O96       1.61279      .   S
    N13    O96       3.77999  1_565   S
    Zr90   O97       2.37914      .   S
    N20    O97       4.67608      .   S
    Zr90   O98       1.67554      .   S
    N12    O98       3.90296      .   S
    Zr90   O99       1.64905      .   S
    N16    O99       3.87785      .   S
    Zr90   O100      1.68468      .   S
    N18    O100      3.88235      .   S
    Zr101  O102      1.66475      .   S
    N14    O102      3.91003      .   S
    Zr101  O103      1.64071      .   S
    N15    O103      3.76010  1_565   S
    Zr101  O104      2.35742      .   S
    N22    O104      4.65365  1_556   S
    Zr101  O105      1.67920      .   S
    N18    O105      3.90236      .   S
    Zr101  O106      1.60134      .   S
    N16    O106      3.75701  1_455   S
    Zr101  O107      2.37902      .   S
    N22    O107      4.67643      .   S
    Zr101  O108      1.67589      .   S
    N14    O108      3.90335      .   S
    Zr101  O109      1.61251      .   S
    N15    O109      3.77961  1_565   S
    Zr101  O110      1.66360      .   S
    N18    O110      3.91013      .   S
    Zr101  O111      1.63355      .   S
    N16    O111      3.73771  1_455   S
