# CIF file generated by openbabel 2.4.90, see http://openbabel.sf.net
data_I
_chemical_name_common ''
_cell_length_a 21.85
_cell_length_b 21.892
_cell_length_c 13.972
_cell_angle_alpha 95.2
_cell_angle_beta 99.23
_cell_angle_gamma 99.89
_space_group_name_H-M_alt 'P 1'
_space_group_name_Hall 'P 1'
loop_
    _symmetry_equiv_pos_as_xyz
    x,y,z
loop_
    _atom_site_label
    _atom_site_type_symbol
    _atom_site_fract_x
    _atom_site_fract_y
    _atom_site_fract_z
    _atom_site_occupancy
    Zr0     Zr   0.19553   0.37802   0.89234   1.000
    Zr1     Zr   0.18630   0.88161   0.89234   1.000
    Zr2     Zr   0.70195   0.37816   0.89247   1.000
    Zr3     Zr   0.69271   0.88174   0.89247   1.000
    Zr4     Zr   0.16824   0.35857   0.68104   1.000
    Zr5     Zr   0.15900   0.86216   0.68104   1.000
    Zr6     Zr   0.67302   0.35849   0.68090   1.000
    Zr7     Zr   0.66379   0.86208   0.68090   1.000
    Zr8     Zr   0.33947   0.14366   0.12252   1.000
    Zr9     Zr   0.33023   0.64725   0.12252   1.000
    Zr10    Zr   0.84588   0.14379   0.12265   1.000
    Zr11    Zr   0.83665   0.64738   0.12265   1.000
    Zr12    Zr   0.36839   0.16333   0.33409   1.000
    Zr13    Zr   0.35916   0.66692   0.33409   1.000
    Zr14    Zr   0.87318   0.16325   0.33395   1.000
    Zr15    Zr   0.86394   0.66684   0.33395   1.000
    O16     O    0.18188   0.36829   0.78669   1.000
    O17     O    0.17265   0.87189   0.78669   1.000
    O18     O    0.68749   0.36832   0.78668   1.000
    O19     O    0.67825   0.87191   0.78668   1.000
    O20     O    0.35393   0.15349   0.22831   1.000
    O21     O    0.34470   0.65709   0.22831   1.000
    O22     O    0.85953   0.15352   0.22830   1.000
    O23     O    0.85030   0.65711   0.22830   1.000
    N24     N    0.18412   0.11825   0.79105   1.000
    O25     O    0.17389   0.01447   0.74447   1.000
    O26     O    0.18649   0.02339   0.83872   1.000
    O27     O    0.18884   0.22428   0.83521   1.000
    O28     O    0.17472   0.21497   0.74116   1.000
    N29     N    0.68960   0.11828   0.79098   1.000
    O30     O    0.67917   0.01446   0.74439   1.000
    O31     O    0.69210   0.02343   0.83872   1.000
    O32     O    0.69468   0.22435   0.83523   1.000
    O33     O    0.67984   0.21495   0.74096   1.000
    N34     N    0.17841   0.62050   0.79104   1.000
    O35     O    0.17567   0.51380   0.74447   1.000
    O36     O    0.18826   0.52272   0.83871   1.000
    O37     O    0.18140   0.72720   0.83521   1.000
    O38     O    0.16725   0.71789   0.74116   1.000
    N39     N    0.68386   0.62053   0.79101   1.000
    O40     O    0.68092   0.51379   0.74441   1.000
    O41     O    0.69385   0.52276   0.83874   1.000
    O42     O    0.68719   0.72726   0.83524   1.000
    O43     O    0.67236   0.71787   0.74115   1.000
    N44     N    0.14396   0.37445   0.27706   1.000
    O45     O    0.16067   0.37233   0.11807   1.000
    O46     O    0.15453   0.36629   0.44165   1.000
    N47     N    0.13584   0.87777   0.27706   1.000
    O48     O    0.15201   0.87578   0.11809   1.000
    O49     O    0.14585   0.86975   0.44165   1.000
    N50     N    0.64968   0.37455   0.27697   1.000
    O51     O    0.66668   0.37245   0.11810   1.000
    O52     O    0.65993   0.36633   0.44155   1.000
    N53     N    0.64120   0.87788   0.27699   1.000
    O54     O    0.65783   0.87591   0.11811   1.000
    O55     O    0.65108   0.86980   0.44156   1.000
    N56     N    0.93635   0.36757   0.78235   1.000
    O57     O    0.02866   0.36112   0.73366   1.000
    O58     O    0.04133   0.36998   0.82790   1.000
    O59     O    0.82918   0.36502   0.73900   1.000
    O60     O    0.84266   0.37535   0.83317   1.000
    N61     N    0.42531   0.87107   0.78278   1.000
    O62     O    0.52100   0.86463   0.73379   1.000
    O63     O    0.53434   0.87353   0.82809   1.000
    O64     O    0.31658   0.86865   0.73926   1.000
    O65     O    0.32949   0.87881   0.83340   1.000
    N66     N    0.92787   0.87114   0.78236   1.000
    O67     O    0.01980   0.86470   0.73367   1.000
    O68     O    0.03247   0.87355   0.82790   1.000
    O69     O    0.82033   0.86860   0.73901   1.000
    O70     O    0.83380   0.87892   0.83317   1.000
    N71     N    0.43455   0.36748   0.78280   1.000
    O72     O    0.53024   0.36104   0.73381   1.000
    O73     O    0.54358   0.36995   0.82810   1.000
    O74     O    0.32582   0.36506   0.73927   1.000
    O75     O    0.33872   0.37521   0.83341   1.000
    N76     N    0.34832   0.40488   0.22397   1.000
    O77     O    0.35126   0.51161   0.27058   1.000
    O78     O    0.33833   0.50264   0.17625   1.000
    O79     O    0.34499   0.29814   0.17974   1.000
    O80     O    0.35982   0.30754   0.27383   1.000
    N81     N    0.34258   0.90713   0.22395   1.000
    O82     O    0.35301   0.01094   0.27057   1.000
    O83     O    0.34008   0.00197   0.17624   1.000
    O84     O    0.33750   0.80106   0.17973   1.000
    O85     O    0.35234   0.81046   0.27375   1.000
    N86     N    0.85377   0.40491   0.22391   1.000
    O87     O    0.85651   0.51161   0.27050   1.000
    O88     O    0.84392   0.50269   0.17625   1.000
    O89     O    0.85078   0.29821   0.17975   1.000
    O90     O    0.86493   0.30752   0.27381   1.000
    N91     N    0.84807   0.90716   0.22394   1.000
    O92     O    0.85829   0.01094   0.27052   1.000
    O93     O    0.84569   0.00202   0.17626   1.000
    O94     O    0.84335   0.80113   0.17976   1.000
    O95     O    0.85746   0.81044   0.27383   1.000
    N96     N    0.10348   0.15427   0.23263   1.000
    O97     O    0.01196   0.16071   0.28132   1.000
    O98     O    0.99929   0.15185   0.18708   1.000
    O99     O    0.21143   0.15681   0.27598   1.000
    O100    O    0.19796   0.14649   0.18182   1.000
    N101    N    0.09423   0.65784   0.23259   1.000
    O102    O    0.00272   0.66429   0.28130   1.000
    O103    O    0.99005   0.65543   0.18707   1.000
    O104    O    0.20220   0.66039   0.27594   1.000
    O105    O    0.18872   0.65006   0.18180   1.000
    N106    N    0.60687   0.15433   0.23219   1.000
    O107    O    0.51118   0.16078   0.28118   1.000
    O108    O    0.49784   0.15187   0.18689   1.000
    O109    O    0.71560   0.15675   0.27572   1.000
    O110    O    0.70269   0.14660   0.18158   1.000
    N111    N    0.59763   0.65793   0.23218   1.000
    O112    O    0.50194   0.66437   0.28118   1.000
    O113    O    0.48860   0.65546   0.18689   1.000
    O114    O    0.70636   0.66035   0.27571   1.000
    O115    O    0.69346   0.65020   0.18157   1.000
    N116    N    0.39099   0.14721   0.73800   1.000
    O117    O    0.37435   0.14934   0.89688   1.000
    O118    O    0.38110   0.15545   0.57342   1.000
    N119    N    0.38251   0.65087   0.73800   1.000
    O120    O    0.36550   0.65296   0.89688   1.000
    O121    O    0.37225   0.65908   0.57343   1.000
    N122    N    0.89517   0.14732   0.73793   1.000
    O123    O    0.87959   0.14946   0.89690   1.000
    O124    O    0.88574   0.15550   0.57334   1.000
    N125    N    0.88752   0.65096   0.73788   1.000
    O126    O    0.87116   0.65308   0.89688   1.000
    O127    O    0.87730   0.65913   0.57332   1.000
loop_
    _geom_bond_atom_site_label_1
    _geom_bond_atom_site_label_2
    _geom_bond_distance
    _geom_bond_site_symmetry_2
    _ccdc_geom_bond_type
    Zr0    O16       1.44681      .   S
    Zr4    O16       1.44681      .   S
    Zr1    O17       1.44681      .   S
    Zr5    O17       1.44681      .   S
    Zr2    O18       1.44910      .   S
    Zr6    O18       1.44910      .   S
    Zr3    O19       1.44910      .   S
    Zr7    O19       1.44910      .   S
    Zr8    O20       1.44910      .   S
    Zr12   O20       1.44910      .   S
    Zr9    O21       1.44910      .   S
    Zr13   O21       1.44910      .   S
    Zr10   O22       1.44681      .   S
    Zr14   O22       1.44681      .   S
    Zr11   O23       1.44681      .   S
    Zr15   O23       1.44681      .   S
    N24    O25       2.26852      .   S
    Zr5    O25       3.31780  1_565   S
    N24    O26       2.24405      .   S
    Zr1    O26       3.25767  1_565   S
    N24    O27       2.32745      .   S
    Zr0    O27       3.36060      .   S
    N24    O28       2.32014      .   S
    Zr4    O28       3.34685      .   S
    N29    O30       2.26879      .   S
    Zr7    O30       3.31833  1_565   S
    N29    O31       2.24452      .   S
    Zr3    O31       3.25868  1_565   S
    N29    O32       2.32717      .   S
    Zr2    O32       3.36015      .   S
    N29    O33       2.32115      .   S
    Zr6    O33       3.34664      .   S
    N34    O35       2.35528      .   S
    Zr4    O35       3.40266      .   S
    N34    O36       2.33298      .   S
    Zr0    O36       3.34455      .   S
    N34    O37       2.34837      .   S
    Zr1    O37       3.38154      .   S
    N34    O38       2.34199      .   S
    Zr5    O38       3.36760      .   S
    N39    O40       2.35527      .   S
    Zr6    O40       3.40274      .   S
    N39    O41       2.33355      .   S
    Zr2    O41       3.34619      .   S
    N39    O42       2.34792      .   S
    Zr3    O42       3.38071      .   S
    N39    O43       2.34231      .   S
    Zr7    O43       3.36826      .   S
    N44    O45       2.30604      .   S
    Zr0    O45       3.36919  1_556   S
    N44    O46       2.30034      .   S
    Zr4    O46       3.33233      .   S
    N47    O48       2.30210      .   S
    Zr1    O48       3.36522  1_556   S
    N47    O49       2.30043      .   S
    Zr5    O49       3.33266      .   S
    N50    O51       2.30641      .   S
    Zr2    O51       3.37121  1_556   S
    N50    O52       2.30082      .   S
    Zr6    O52       3.33306      .   S
    N53    O54       2.30400      .   S
    Zr3    O54       3.36842  1_556   S
    N53    O55       2.30062      .   S
    Zr7    O55       3.33305      .   S
    N56    O57       2.25202  1_655   S
    Zr4    O57       3.25816      .   S
    N56    O58       2.27009  1_655   S
    Zr0    O58       3.31487      .   S
    N56    O59       2.31232      .   S
    Zr6    O59       3.35339      .   S
    N56    O60       2.29952      .   S
    Zr2    O60       3.31901      .   S
    N61    O62       2.32455      .   S
    Zr7    O62       3.32792      .   S
    N61    O63       2.35482      .   S
    Zr3    O63       3.40214      .   S
    N61    O64       2.34607      .   S
    Zr5    O64       3.38366      .   S
    N61    O65       2.34248      .   S
    Zr1    O65       3.36951      .   S
    N66    O67       2.24401  1_655   S
    Zr5    O67       3.25001      .   S
    N66    O68       2.26213  1_655   S
    Zr1    O68       3.30690      .   S
    N66    O69       2.32031      .   S
    Zr7    O69       3.36144      .   S
    N66    O70       2.30744      .   S
    Zr3    O70       3.32716      .   S
    N71    O72       2.32451      .   S
    Zr6    O72       3.32785      .   S
    N71    O73       2.35479      .   S
    Zr2    O73       3.40212      .   S
    N71    O74       2.34608      .   S
    Zr4    O74       3.38366      .   S
    N71    O75       2.34250      .   S
    Zr0    O75       3.36959      .   S
    N76    O77       2.35526      .   S
    Zr13   O77       3.40283      .   S
    N76    O78       2.33357      .   S
    Zr9    O78       3.34622      .   S
    N76    O79       2.34793      .   S
    Zr8    O79       3.38083      .   S
    N76    O80       2.34229      .   S
    Zr12   O80       3.36824      .   S
    N81    O82       2.26886  1_565   S
    Zr12   O82       3.31849      .   S
    N81    O83       2.24430  1_565   S
    Zr8    O83       3.25848      .   S
    N81    O84       2.32706      .   S
    Zr9    O84       3.36005      .   S
    N81    O85       2.32005      .   S
    Zr13   O85       3.34782      .   S
    N86    O87       2.35534      .   S
    Zr15   O87       3.40272      .   S
    N86    O88       2.33293      .   S
    Zr11   O88       3.34427      .   S
    N86    O89       2.34846      .   S
    Zr10   O89       3.38156      .   S
    N86    O90       2.34206      .   S
    Zr14   O90       3.36766      .   S
    N91    O92       2.26854  1_565   S
    Zr14   O92       3.31783      .   S
    N91    O93       2.24400  1_565   S
    Zr10   O93       3.25752      .   S
    N91    O94       2.32753      .   S
    Zr11   O94       3.36068      .   S
    N91    O95       2.32012      .   S
    Zr15   O95       3.34684      .   S
    N96    O97       2.23534      .   S
    Zr14   O97       3.24115  1_655   S
    N96    O98       2.25338  1_455   S
    Zr10   O98       3.29808      .   S
    N96    O99       2.32913      .   S
    Zr12   O99       3.37028      .   S
    N96    O100      2.31615      .   S
    Zr8    O100      3.33594      .   S
    N101   O102      2.23545      .   S
    Zr15   O102      3.24130  1_655   S
    N101   O103      2.25325  1_455   S
    Zr11   O103      3.29800      .   S
    N101   O104      2.32920      .   S
    Zr13   O104      3.37040      .   S
    N101   O105      2.31602      .   S
    Zr9    O105      3.33581      .   S
    N106   O107      2.32457      .   S
    Zr12   O107      3.32802      .   S
    N106   O108      2.35479      .   S
    Zr8    O108      3.40212      .   S
    N106   O109      2.34608      .   S
    Zr14   O109      3.38366      .   S
    N106   O110      2.34243      .   S
    Zr10   O110      3.36948      .   S
    N111   O112      2.32453      .   S
    Zr13   O112      3.32787      .   S
    N111   O113      2.35478      .   S
    Zr9    O113      3.40211      .   S
    N111   O114      2.34609      .   S
    Zr15   O114      3.38367      .   S
    N111   O115      2.34249      .   S
    Zr11   O115      3.36960      .   S
    N116   O117      2.30392      .   S
    Zr8    O117      3.36820  1_554   S
    N116   O118      2.30133      .   S
    Zr12   O118      3.33346      .   S
    N119   O120      2.30654      .   S
    Zr9    O120      3.37139  1_554   S
    N119   O121      2.30067      .   S
    Zr13   O121      3.33291      .   S
    N122   O123      2.29800      .   S
    Zr10   O123      3.36030  1_554   S
    N122   O124      2.30177      .   S
    Zr14   O124      3.33406      .   S
    N125   O126      2.30366      .   S
    Zr11   O126      3.36702  1_554   S
    N125   O127      2.30038      .   S
    Zr15   O127      3.33246      .   S
