# CIF file generated by openbabel 2.4.90, see http://openbabel.sf.net
data_I
_chemical_name_common ''
_cell_length_a 22.353
_cell_length_b 16.76
_cell_length_c 18.262
_cell_angle_alpha 62.678
_cell_angle_beta 72.41
_cell_angle_gamma 90.054
_space_group_name_H-M_alt 'P 1'
_space_group_name_Hall 'P 1'
loop_
    _symmetry_equiv_pos_as_xyz
    x,y,z
loop_
    _atom_site_label
    _atom_site_type_symbol
    _atom_site_fract_x
    _atom_site_fract_y
    _atom_site_fract_z
    _atom_site_occupancy
    Zn0     Zn   0.78974   0.78889   0.64776   1.000
    Zn1     Zn   0.29865   0.46637   0.16006   1.000
    Zn2     Zn   0.79725   0.46581   0.16043   1.000
    Zn3     Zn   0.20847   0.43552   0.35344   1.000
    Zn4     Zn   0.70843   0.43566   0.35355   1.000
    Zn5     Zn   0.20265   0.62603   0.84003   1.000
    Zn6     Zn   0.70095   0.62559   0.84059   1.000
    Zn7     Zn   0.38544   0.28882   0.64780   1.000
    Zn8     Zn   0.88541   0.28868   0.64792   1.000
    Zn9     Zn   0.12031   0.96581   0.16006   1.000
    Zn10    Zn   0.62032   0.96555   0.16020   1.000
    Zn11    Zn   0.11440   0.93598   0.35299   1.000
    Zn12    Zn   0.61440   0.93572   0.35319   1.000
    Zn13    Zn   0.37958   0.12592   0.84090   1.000
    Zn14    Zn   0.87941   0.12589   0.84090   1.000
    H15     H    0.37843   0.49342   0.69519   1.000
    H16     H    0.87829   0.49360   0.69503   1.000
    H17     H    0.36045   0.29970   0.96090   1.000
    H18     H    0.86015   0.29983   0.96081   1.000
    H19     H    0.31839   0.56792   0.89990   1.000
    H20     H    0.81747   0.56777   0.89991   1.000
    H21     H    0.47583   0.00000   0.63385   1.000
    H22     H    0.97455   0.00000   0.63468   1.000
    H23     H    0.38098   0.85842   0.74814   1.000
    H24     H    0.87939   0.85807   0.74886   1.000
    H25     H    0.46457   0.01702   0.35954   1.000
    H26     H    0.96368   0.01618   0.36043   1.000
    H27     H    0.41974   0.00000   0.25779   1.000
    H28     H    0.91934   0.00000   0.25830   1.000
    H29     H    0.31337   0.90050   0.31929   1.000
    H30     H    0.81293   0.89970   0.31943   1.000
    H31     H    0.26007   0.81648   0.48209   1.000
    Zn32    Zn   0.29147   0.78932   0.64707   1.000
    H33     H    0.75909   0.81616   0.48208   1.000
    H34     H    0.01662   0.10582   0.48200   1.000
    H35     H    0.51757   0.10681   0.48110   1.000
    H36     H    0.01586   0.06347   0.41011   1.000
    H37     H    0.51675   0.06447   0.40922   1.000
    H38     H    0.49789   0.18849   0.28718   1.000
    H39     H    0.99736   0.18770   0.28761   1.000
    H40     H    0.42952   0.30113   0.22775   1.000
    H41     H    0.92929   0.30064   0.22774   1.000
    H42     H    0.31609   0.23691   0.49059   1.000
    H43     H    0.81581   0.23739   0.49027   1.000
    H44     H    0.38250   0.12652   0.54961   1.000
    H45     H    0.88187   0.12667   0.54971   1.000
    H46     H    0.12134   0.18796   0.30537   1.000
    H47     H    0.62127   0.18770   0.30540   1.000
    H48     H    0.13965   0.25982   0.03960   1.000
    H49     H    0.63970   0.25961   0.03967   1.000
    H50     H    0.18249   0.46708   0.10027   1.000
    H51     H    0.68176   0.46698   0.10059   1.000
    H52     H    0.02492   0.64309   0.36596   1.000
    H53     H    0.52448   0.64275   0.36579   1.000
    H54     H    0.11951   0.60608   0.25200   1.000
    H55     H    0.61941   0.60609   0.25190   1.000
    H56     H    0.03539   0.37635   0.64072   1.000
    H57     H    0.53517   0.37630   0.64060   1.000
    H58     H    0.07996   0.25918   0.74282   1.000
    H59     H    0.57987   0.25940   0.74277   1.000
    H60     H    0.18615   0.21928   0.68173   1.000
    H61     H    0.68614   0.21967   0.68168   1.000
    H62     H    0.23955   0.29762   0.51895   1.000
    H63     H    0.73951   0.29798   0.51889   1.000
    H64     H    0.48233   0.58737   0.51850   1.000
    H65     H    0.98289   0.58782   0.51866   1.000
    H66     H    0.48284   0.47300   0.59044   1.000
    H67     H    0.98334   0.47347   0.59067   1.000
    H68     H    0.00211   0.47500   0.71300   1.000
    H69     H    0.50123   0.47448   0.71297   1.000
    H70     H    0.07035   0.52794   0.77292   1.000
    H71     H    0.56917   0.52741   0.77318   1.000
    H72     H    0.18410   0.72712   0.51033   1.000
    H73     H    0.68338   0.72647   0.51079   1.000
    H74     H    0.11784   0.67598   0.45094   1.000
    H75     H    0.61735   0.67545   0.45104   1.000
    H76     H    0.27515   0.99340   0.69550   1.000
    H77     H    0.77457   0.99299   0.69572   1.000
    H78     H    0.16012   0.79977   0.96046   1.000
    H79     H    0.65979   0.79955   0.96090   1.000
    H80     H    0.23231   0.06787   0.90034   1.000
    H81     H    0.73240   0.06760   0.90043   1.000
    H82     H    0.20801   0.50909   0.63397   1.000
    H83     H    0.70807   0.50913   0.63380   1.000
    H84     H    0.24617   0.35838   0.74844   1.000
    H85     H    0.74609   0.35828   0.74839   1.000
    H86     H    0.35528   0.51717   0.35989   1.000
    H87     H    0.85531   0.51697   0.35985   1.000
    H88     H    0.45052   0.50190   0.25826   1.000
    H89     H    0.95059   0.50170   0.25820   1.000
    H90     H    0.02630   0.40050   0.32006   1.000
    H91     H    0.52620   0.40062   0.31997   1.000
    H92     H    0.99868   0.31613   0.48292   1.000
    H93     H    0.49863   0.31621   0.48283   1.000
    H94     H    0.24195   0.60657   0.48127   1.000
    H95     H    0.74203   0.60655   0.48117   1.000
    H96     H    0.27811   0.56403   0.40951   1.000
    H97     H    0.77818   0.56398   0.40944   1.000
    H98     H    0.35738   0.68803   0.28716   1.000
    H99     H    0.85749   0.68786   0.28709   1.000
    C100    C    0.67471   0.44323   0.96702   1.000
    C101    C    0.16213   0.35527   0.27487   1.000
    C102    C    0.66143   0.35494   0.27534   1.000
    C103    C    0.11011   0.11437   0.20487   1.000
    H104    H    0.45535   0.80056   0.22743   1.000
    H105    H    0.95544   0.80044   0.22732   1.000
    H106    H    0.43916   0.73692   0.49004   1.000
    H107    H    0.93917   0.73703   0.48991   1.000
    H108    H    0.34334   0.62671   0.54934   1.000
    H109    H    0.84339   0.62675   0.54924   1.000
    H110    H    0.22465   0.68827   0.30525   1.000
    H111    H    0.72466   0.68809   0.30527   1.000
    H112    H    0.34004   0.76036   0.04033   1.000
    H113    H    0.84000   0.76030   0.04029   1.000
    H114    H    0.26766   0.96789   0.10069   1.000
    H115    H    0.76768   0.96776   0.10083   1.000
    H116    H    0.29137   0.14310   0.36729   1.000
    H117    H    0.79138   0.14308   0.36718   1.000
    H118    H    0.25363   0.10653   0.25268   1.000
    H119    H    0.75359   0.10632   0.25271   1.000
    H120    H    0.14423   0.87633   0.64114   1.000
    H121    H    0.64406   0.87669   0.64128   1.000
    H122    H    0.04898   0.75914   0.74269   1.000
    H123    H    0.54890   0.75939   0.74284   1.000
    H124    H    0.47340   0.71940   0.68105   1.000
    H125    H    0.97327   0.71961   0.68080   1.000
    H126    H    0.50110   0.79776   0.51819   1.000
    H127    H    0.00000   0.79821   0.51000   1.000
    H128    H    0.25724   0.08781   0.51996   1.000
    H129    H    0.75732   0.08789   0.51984   1.000
    H130    H    0.22117   0.97336   0.59100   1.000
    H131    H    0.72116   0.97347   0.59165   1.000
    C132    C    0.26470   0.39604   0.67738   1.000
    C133    C    0.76465   0.39594   0.67734   1.000
    C134    C    0.32594   0.43387   0.54370   1.000
    C135    C    0.82592   0.43373   0.54372   1.000
    C136    C    0.37859   0.42971   0.47569   1.000
    H137    H    0.14186   0.97482   0.71400   1.000
    H138    H    0.64192   0.97495   0.71390   1.000
    H139    H    0.04400   0.02759   0.77371   1.000
    H140    H    0.54411   0.02780   0.77364   1.000
    H141    H    0.06007   0.22636   0.51104   1.000
    H142    H    0.56026   0.22672   0.51099   1.000
    H143    H    0.15578   0.17548   0.45175   1.000
    H144    H    0.65593   0.17577   0.45169   1.000
    C145    C    0.36786   0.47650   0.76330   1.000
    C146    C    0.86759   0.47663   0.76321   1.000
    C147    C    0.37270   0.38959   0.82430   1.000
    C148    C    0.87248   0.38973   0.82424   1.000
    C149    C    0.35808   0.36770   0.91258   1.000
    C150    C    0.85774   0.36781   0.91240   1.000
    C151    C    0.34016   0.43283   0.93910   1.000
    C152    C    0.83961   0.43285   0.93904   1.000
    C153    C    0.33388   0.51873   0.87786   1.000
    C154    C    0.83319   0.51867   0.87783   1.000
    C155    C    0.34695   0.54049   0.79030   1.000
    C156    C    0.84638   0.54048   0.79024   1.000
    C157    C    0.32550   0.41060   0.03350   1.000
    C158    C    0.82479   0.41054   0.03348   1.000
    C159    C    0.33841   0.63051   0.72527   1.000
    C160    C    0.83761   0.63043   0.72500   1.000
    C161    C    0.38967   0.31937   0.79581   1.000
    C162    C    0.88951   0.31949   0.79569   1.000
    C163    C    0.44473   0.97106   0.62140   1.000
    C164    C    0.94340   0.97043   0.62210   1.000
    C165    C    0.39768   0.89613   0.67708   1.000
    C166    C    0.89617   0.89570   0.67780   1.000
    C167    C    0.40269   0.93397   0.54336   1.000
    C168    C    0.90134   0.93351   0.54405   1.000
    C169    C    0.38378   0.92980   0.47520   1.000
    C170    C    0.88262   0.92925   0.47581   1.000
    C171    C    0.41810   0.97608   0.38517   1.000
    C172    C    0.91721   0.97532   0.38586   1.000
    C173    C    0.39305   0.96645   0.32790   1.000
    C174    C    0.89243   0.96560   0.32841   1.000
    C175    C    0.33482   0.91043   0.36123   1.000
    C176    C    0.83418   0.90971   0.36152   1.000
    C177    C    0.30439   0.86374   0.45166   1.000
    C178    C    0.80346   0.86325   0.45100   1.000
    C179    C    0.48590   0.07960   0.45918   1.000
    C180    C    0.98496   0.07880   0.45989   1.000
    C181    C    0.44468   0.14839   0.42249   1.000
    C182    C    0.94405   0.14796   0.42281   1.000
    C183    C    0.45773   0.19882   0.33181   1.000
    C184    C    0.95724   0.19829   0.33209   1.000
    C185    C    0.41978   0.26225   0.29815   1.000
    C186    C    0.91946   0.26192   0.29817   1.000
    C187    C    0.36780   0.27619   0.35477   1.000
    C188    C    0.86753   0.27619   0.35458   1.000
    C189    C    0.35521   0.22615   0.44536   1.000
    C190    C    0.85488   0.22636   0.44520   1.000
    C191    C    0.39329   0.16319   0.47887   1.000
    C192    C    0.89276   0.16319   0.47896   1.000
    C193    C    0.32678   0.34412   0.31825   1.000
    C194    C    0.82647   0.34405   0.31796   1.000
    C195    C    0.13211   0.23917   0.23715   1.000
    C196    C    0.63196   0.23893   0.23728   1.000
    C197    C    0.12722   0.21324   0.17617   1.000
    C198    C    0.62722   0.21300   0.17620   1.000
    C199    C    0.14207   0.27955   0.08780   1.000
    C200    C    0.64201   0.27932   0.08799   1.000
    C201    C    0.16031   0.37122   0.06120   1.000
    C202    C    0.66002   0.37102   0.06142   1.000
    C203    C    0.16671   0.39587   0.12230   1.000
    C204    C    0.66621   0.39571   0.12267   1.000
    C205    C    0.15341   0.33011   0.21003   1.000
    C206    C    0.65297   0.32991   0.21029   1.000
    C207    C    0.17517   0.44341   0.96674   1.000
    O208    O    0.80706   0.16617   0.64662   1.000
    O209    O    0.32800   0.17146   0.75667   1.000
    O210    O    0.82792   0.17117   0.75659   1.000
    O211    O    0.23161   0.84700   0.71266   1.000
    O212    O    0.72988   0.84657   0.71324   1.000
    O213    O    0.19548   0.73694   0.85551   1.000
    O214    O    0.69506   0.73654   0.85607   1.000
    O215    O    0.03828   0.84637   0.37103   1.000
    C216    C    0.61019   0.11415   0.20492   1.000
    C217    C    0.05582   0.59225   0.37860   1.000
    C218    C    0.55547   0.59202   0.37840   1.000
    C219    C    0.10273   0.57275   0.32309   1.000
    C220    C    0.60255   0.57270   0.32296   1.000
    C221    C    0.09745   0.47683   0.45693   1.000
    C222    C    0.59719   0.47676   0.45684   1.000
    C223    C    0.11617   0.40444   0.52525   1.000
    C224    C    0.61597   0.40449   0.52518   1.000
    C225    C    0.08178   0.36090   0.61525   1.000
    C226    C    0.58160   0.36096   0.61519   1.000
    C227    C    0.10669   0.29402   0.67272   1.000
    C228    C    0.60658   0.29422   0.67267   1.000
    C229    C    0.16482   0.27113   0.63960   1.000
    C230    C    0.66476   0.27143   0.63955   1.000
    C231    C    0.19529   0.31463   0.54919   1.000
    C232    C    0.69522   0.31490   0.54914   1.000
    C233    C    0.01440   0.53853   0.54083   1.000
    C234    C    0.51383   0.53812   0.54068   1.000
    C235    C    0.05550   0.57044   0.57787   1.000
    C236    C    0.55481   0.56998   0.57787   1.000
    C237    C    0.04233   0.53003   0.66858   1.000
    C238    C    0.54146   0.52951   0.66862   1.000
    C239    C    0.08021   0.55967   0.70240   1.000
    C240    C    0.57917   0.55911   0.70272   1.000
    C241    C    0.13226   0.63033   0.64606   1.000
    C242    C    0.63124   0.62974   0.64642   1.000
    C243    C    0.14492   0.67109   0.55543   1.000
    C244    C    0.64415   0.67048   0.55575   1.000
    C245    C    0.10693   0.64174   0.52170   1.000
    C246    C    0.60630   0.64121   0.52182   1.000
    C247    C    0.17338   0.66166   0.68262   1.000
    C248    C    0.67206   0.66119   0.68318   1.000
    C249    C    0.25156   0.97647   0.76356   1.000
    C250    C    0.75114   0.97609   0.76380   1.000
    C251    C    0.21632   0.88956   0.82428   1.000
    C252    C    0.71584   0.88924   0.82463   1.000
    C253    C    0.18663   0.86773   0.91234   1.000
    C254    C    0.68635   0.86746   0.91271   1.000
    C255    C    0.19100   0.93287   0.93900   1.000
    C256    C    0.69091   0.93263   0.93929   1.000
    C257    C    0.22794   0.01869   0.87818   1.000
    C258    C    0.72790   0.01840   0.87834   1.000
    C259    C    0.25881   0.04042   0.79075   1.000
    C260    C    0.75865   0.04006   0.79089   1.000
    C261    C    0.15797   0.91064   0.03324   1.000
    C262    C    0.65795   0.91050   0.03347   1.000
    C263    C    0.29982   0.13039   0.72603   1.000
    C264    C    0.79968   0.13002   0.72606   1.000
    C265    C    0.21401   0.81940   0.79547   1.000
    C266    C    0.71311   0.81904   0.79599   1.000
    C267    C    0.24526   0.47092   0.62160   1.000
    C268    C    0.74529   0.47090   0.62153   1.000
    C269    C    0.87859   0.42956   0.47569   1.000
    C270    C    0.38897   0.47617   0.38560   1.000
    C271    C    0.88899   0.47599   0.38560   1.000
    C272    C    0.44239   0.46663   0.32841   1.000
    C273    C    0.94243   0.46645   0.32843   1.000
    C274    C    0.48398   0.41048   0.36187   1.000
    C275    C    0.98403   0.41033   0.36193   1.000
    C276    C    0.46949   0.36358   0.45233   1.000
    C277    C    0.96951   0.36347   0.45240   1.000
    C278    C    0.28439   0.57932   0.45934   1.000
    C279    C    0.78446   0.57928   0.45920   1.000
    C280    C    0.34384   0.64820   0.42239   1.000
    C281    C    0.84391   0.64814   0.42230   1.000
    C282    C    0.37559   0.69846   0.33169   1.000
    C283    C    0.87569   0.69835   0.33160   1.000
    C284    C    0.43032   0.76184   0.29784   1.000
    C285    C    0.93040   0.76175   0.29774   1.000
    C286    C    0.45448   0.77589   0.35431   1.000
    C287    C    0.95454   0.77589   0.35418   1.000
    C288    C    0.42227   0.72608   0.44492   1.000
    C289    C    0.92231   0.72613   0.44480   1.000
    C290    C    0.36749   0.66320   0.47860   1.000
    C291    C    0.86755   0.66320   0.47850   1.000
    C292    C    0.01382   0.84369   0.31750   1.000
    C293    C    0.51378   0.84360   0.31766   1.000
    C294    C    0.24830   0.73956   0.23723   1.000
    C295    C    0.74831   0.73940   0.23726   1.000
    C296    C    0.28362   0.71359   0.17647   1.000
    C297    C    0.78361   0.71345   0.17646   1.000
    C298    C    0.31343   0.78002   0.08848   1.000
    C299    C    0.81342   0.77992   0.08848   1.000
    C300    C    0.30906   0.87182   0.06189   1.000
    C301    C    0.80907   0.87173   0.06196   1.000
    C302    C    0.27203   0.89656   0.12277   1.000
    C303    C    0.77205   0.89643   0.12288   1.000
    C304    C    0.24107   0.83067   0.21014   1.000
    C305    C    0.74110   0.83050   0.21020   1.000
    C306    C    0.34223   0.94395   0.96777   1.000
    C307    C    0.84220   0.94390   0.96783   1.000
    C308    C    0.20008   0.85574   0.27490   1.000
    C309    C    0.70008   0.85549   0.27506   1.000
    C310    C    0.28604   0.61467   0.20508   1.000
    C311    C    0.78590   0.61450   0.20509   1.000
    C312    C    0.25422   0.09238   0.37958   1.000
    C313    C    0.75420   0.09236   0.37954   1.000
    C314    C    0.23499   0.07312   0.32373   1.000
    C315    C    0.73495   0.07300   0.32376   1.000
    C316    C    0.17363   0.97712   0.45731   1.000
    C317    C    0.67357   0.97714   0.45737   1.000
    C318    C    0.12098   0.90472   0.52530   1.000
    C319    C    0.62093   0.90474   0.52541   1.000
    C320    C    0.11056   0.86101   0.61539   1.000
    C321    C    0.61047   0.86120   0.61551   1.000
    C322    C    0.05713   0.79412   0.67253   1.000
    C323    C    0.55708   0.79425   0.67268   1.000
    C324    C    0.01555   0.77143   0.63900   1.000
    C325    C    0.51560   0.77131   0.63918   1.000
    C326    C    0.03009   0.81509   0.54853   1.000
    C327    C    0.53016   0.81483   0.54870   1.000
    C328    C    0.21486   0.03845   0.54184   1.000
    C329    C    0.71489   0.03857   0.54177   1.000
    C330    C    0.15536   0.07015   0.57874   1.000
    C331    C    0.65545   0.07036   0.57867   1.000
    C332    C    0.12365   0.02973   0.66945   1.000
    C333    C    0.62374   0.02992   0.66938   1.000
    C334    C    0.06899   0.05924   0.70328   1.000
    C335    C    0.56911   0.05948   0.70321   1.000
    C336    C    0.04484   0.12974   0.64680   1.000
    C337    C    0.54500   0.13003   0.64673   1.000
    C338    C    0.07697   0.17045   0.55617   1.000
    C339    C    0.57714   0.17078   0.55611   1.000
    C340    C    0.13168   0.14125   0.52250   1.000
    C341    C    0.63182   0.14154   0.52244   1.000
    C342    C    0.48589   0.16126   0.68330   1.000
    C343    C    0.98573   0.16102   0.68344   1.000
    N344    N    0.44796   0.99475   0.53694   1.000
    N345    N    0.94673   0.99412   0.53760   1.000
    N346    N    0.37223   0.87391   0.62803   1.000
    N347    N    0.87068   0.87359   0.62871   1.000
    N348    N    0.32773   0.87292   0.50763   1.000
    N349    N    0.82653   0.87249   0.50806   1.000
    N350    N    0.05242   0.53147   0.46314   1.000
    N351    N    0.55202   0.53121   0.46300   1.000
    N352    N    0.12793   0.50129   0.37232   1.000
    N353    N    0.62780   0.50134   0.37223   1.000
    N354    N    0.17211   0.37977   0.49302   1.000
    N355    N    0.67197   0.37993   0.49298   1.000
    N356    N    0.28388   0.49461   0.53719   1.000
    N357    N    0.78392   0.49456   0.53714   1.000
    N358    N    0.31444   0.37384   0.62840   1.000
    N359    N    0.81437   0.37367   0.62844   1.000
    N360    N    0.41845   0.37269   0.50825   1.000
    N361    N    0.91844   0.37256   0.50820   1.000
    N362    N    0.21552   0.03156   0.46390   1.000
    N363    N    0.71549   0.03164   0.46394   1.000
    N364    N    0.18529   0.00000   0.37258   1.000
    N365    N    0.68523   0.00000   0.37267   1.000
    N366    N    0.08117   0.88020   0.49266   1.000
    N367    N    0.58120   0.88001   0.49281   1.000
    O368    O    0.31886   0.48280   0.04426   1.000
    O369    O    0.81755   0.48255   0.04446   1.000
    O370    O    0.32026   0.33176   0.09222   1.000
    O371    O    0.81996   0.33177   0.09208   1.000
    O372    O    0.37032   0.66644   0.64587   1.000
    O373    O    0.86989   0.66676   0.64601   1.000
    O374    O    0.29534   0.67202   0.75563   1.000
    O375    O    0.79397   0.67128   0.75569   1.000
    O376    O    0.41353   0.34672   0.71307   1.000
    O377    O    0.91346   0.34681   0.71290   1.000
    O378    O    0.37833   0.23700   0.85600   1.000
    O379    O    0.87809   0.23710   0.85590   1.000
    O380    O    0.27600   0.34687   0.37192   1.000
    O381    O    0.77587   0.34705   0.37178   1.000
    O382    O    0.34690   0.39390   0.23503   1.000
    O383    O    0.84622   0.39333   0.23470   1.000
    O384    O    0.18241   0.52641   0.95581   1.000
    O385    O    0.68161   0.52621   0.95622   1.000
    O386    O    0.18002   0.42329   0.90812   1.000
    O387    O    0.67969   0.42321   0.90831   1.000
    O388    O    0.13003   0.31208   0.35420   1.000
    O389    O    0.62939   0.31147   0.35469   1.000
    O390    O    0.20547   0.42693   0.24443   1.000
    O391    O    0.70458   0.42681   0.24504   1.000
    O392    O    0.08627   0.05897   0.28762   1.000
    O393    O    0.58631   0.05875   0.28766   1.000
    O394    O    0.12138   0.09216   0.14471   1.000
    O395    O    0.62153   0.09195   0.14475   1.000
    O396    O    0.22410   0.71835   0.62882   1.000
    O397    O    0.72288   0.71769   0.62952   1.000
    O398    O    0.15354   0.62795   0.76585   1.000
    O399    O    0.65187   0.62782   0.76640   1.000
    O400    O    0.15886   0.98276   0.04419   1.000
    O401    O    0.65888   0.98265   0.04434   1.000
    O402    O    0.13371   0.83182   0.09172   1.000
    O403    O    0.63369   0.83170   0.09202   1.000
    O404    O    0.30726   0.16663   0.64656   1.000
    O405    O    0.53827   0.84619   0.37120   1.000
    O406    O    0.03482   0.89340   0.23424   1.000
    O407    O    0.53479   0.89333   0.23440   1.000
    O408    O    0.34100   0.02703   0.95677   1.000
    O409    O    0.84096   0.02697   0.95685   1.000
    O410    O    0.36692   0.92374   0.90936   1.000
    O411    O    0.86685   0.92372   0.90939   1.000
    O412    O    0.19273   0.81246   0.35434   1.000
    O413    O    0.69269   0.81213   0.35450   1.000
    O414    O    0.17184   0.92735   0.24434   1.000
    O415    O    0.67185   0.92711   0.24453   1.000
    O416    O    0.26838   0.55916   0.28782   1.000
    O417    O    0.76834   0.55909   0.28780   1.000
    O418    O    0.30482   0.59262   0.14483   1.000
    O419    O    0.80439   0.59227   0.14496   1.000
    O420    O    0.46140   0.21732   0.62982   1.000
    O421    O    0.96131   0.21718   0.62984   1.000
    O422    O    0.46505   0.12802   0.76659   1.000
    O423    O    0.96484   0.12776   0.76665   1.000
loop_
    _geom_bond_atom_site_label_1
    _geom_bond_atom_site_label_2
    _geom_bond_distance
    _geom_bond_site_symmetry_2
    _ccdc_geom_bond_type
    C261   O400      1.31358      .   S
    C261   O402      1.23824      .   S
    C261   C255      1.51287  1_554   S
    C262   O401      1.31344      .   S
    C262   O403      1.23833      .   S
    C262   C256      1.51210  1_554   S
    C158   O369      1.31381      .   S
    C158   O371      1.23807      .   S
    C158   C152      1.51211  1_554   S
    C157   O368      1.31378      .   S
    C157   O370      1.23800      .   S
    C157   C151      1.51222  1_554   S
    H48    C199      1.08760      .   S
    H49    C200      1.08895      .   S
    H113   C299      1.08895      .   S
    H112   C298      1.08896      .   S
    O400   Zn9       1.90956      .   S
    O368   Zn1       1.90781      .   S
    O401   Zn10      1.90848      .   S
    O369   Zn2       1.90872      .   S
    C201   C199      1.39887      .   S
    C201   C203      1.39851      .   S
    C201   C207      1.51224  1_554   S
    C202   C200      1.39841      .   S
    C202   C204      1.40002      .   S
    C202   C100      1.51204  1_554   S
    C300   C298      1.39848      .   S
    C300   C302      1.40029      .   S
    C300   C306      1.51197  1_554   S
    C301   C299      1.39861      .   S
    C301   C303      1.40031      .   S
    C301   C307      1.51216  1_554   S
    C199   C197      1.40670      .   S
    C200   C198      1.40482      .   S
    C299   C297      1.40531      .   S
    C298   C296      1.40529      .   S
    H50    C203      1.08781      .   S
    H51    C204      1.08745      .   S
    H114   C302      1.08757      .   S
    H115   C303      1.08756      .   S
    C203   C205      1.40018      .   S
    C204   C206      1.39909      .   S
    C302   C304      1.39928      .   S
    C303   C305      1.39887      .   S
    O394   Zn9       2.00362  1_545   S
    O394   C103      1.27181      .   S
    O395   Zn10      2.00374  1_545   S
    O395   C216      1.27166      .   S
    O418   Zn1       2.00244      .   S
    O418   C310      1.27193      .   S
    O419   Zn2       2.00490      .   S
    O419   C311      1.27168      .   S
    Zn1    O382      1.97021      .   S
    Zn1    O390      2.06676      .   S
    Zn9    O406      1.97019      .   S
    Zn9    O414      2.06713      .   S
    Zn10   O407      1.96995      .   S
    Zn10   O415      2.06783      .   S
    Zn2    O383      1.97509      .   S
    Zn2    O391      2.05942      .   S
    C197   C103      1.49898      .   S
    C197   C195      1.39962      .   S
    C198   C216      1.49839      .   S
    C198   C196      1.40034      .   S
    C297   C311      1.49890      .   S
    C297   C295      1.39963      .   S
    C296   C310      1.49882      .   S
    C296   C294      1.39956      .   S
    C103   O392      1.28610      .   S
    C216   O393      1.28602      .   S
    C310   O416      1.28563      .   S
    C311   O417      1.28502      .   S
    C205   C195      1.39920      .   S
    C205   C101      1.48850      .   S
    C304   C294      1.39915      .   S
    C304   C308      1.48895      .   S
    C305   C295      1.39904      .   S
    C305   C309      1.48958      .   S
    C206   C196      1.39910      .   S
    C206   C102      1.48855      .   S
    H105   C285      1.08919      .   S
    H104   C284      1.08906      .   S
    H41    C186      1.08924      .   S
    H40    C185      1.08922      .   S
    O406   C292      1.27724      .   S
    O407   C293      1.27728      .   S
    O383   C194      1.27663      .   S
    O382   C193      1.27680      .   S
    C195   H46       1.08787      .   S
    C294   H110      1.08784      .   S
    C295   H111      1.08786      .   S
    C196   H47       1.08686      .   S
    O414   C308      1.32274      .   S
    O390   C101      1.32274      .   S
    O415   C309      1.32274      .   S
    O391   C102      1.32323      .   S
    H55    C220      1.08470      .   S
    H54    C219      1.08524      .   S
    H118   C314      1.08468      .   S
    H119   C315      1.08474      .   S
    H27    C173      1.09005  1_545   S
    H89    C273      1.09092      .   S
    H88    C272      1.08974      .   S
    H28    C174      1.09074  1_545   S
    C101   O388      1.24324      .   S
    C308   O412      1.24398      .   S
    C309   O413      1.24388      .   S
    C102   O389      1.24345      .   S
    H99    C283      1.08987      .   S
    H98    C282      1.08997      .   S
    H38    C183      1.08989      .   S
    H39    C184      1.09000      .   S
    O392   Zn11      2.06576  1_545   S
    O393   Zn12      2.06624  1_545   S
    O417   Zn4       2.06348      .   S
    O416   Zn3       2.06607      .   S
    C285   C283      1.39449      .   S
    C285   C287      1.40350      .   S
    C284   C282      1.39444      .   S
    C284   C286      1.40364      .   S
    C185   C183      1.39437      .   S
    C185   C187      1.40351      .   S
    C186   C184      1.39475      .   S
    C186   C188      1.40359      .   S
    C292   C287      1.50266  1_455   S
    C292   O215      1.27274      .   S
    C293   C286      1.50217      .   S
    C293   O405      1.27269      .   S
    C194   C188      1.50259      .   S
    C194   O381      1.27328      .   S
    C193   C187      1.50213      .   S
    C193   O380      1.27287      .   S
    H29    C175      1.08763      .   S
    H30    C176      1.08781      .   S
    H91    C274      1.08775      .   S
    H90    C275      1.08811  1_455   S
    C220   N353      1.37071      .   S
    C220   C218      1.37664      .   S
    C219   N352      1.37074      .   S
    C219   C217      1.37710      .   S
    C314   N364      1.38803      .   S
    C314   C312      1.37709      .   S
    C315   N365      1.38714      .   S
    C315   C313      1.37701      .   S
    C173   C175      1.39298      .   S
    C173   C171      1.39377      .   S
    C174   C176      1.39296      .   S
    C174   C172      1.39367      .   S
    C272   C274      1.39298      .   S
    C272   C270      1.39358      .   S
    C273   C275      1.39302      .   S
    C273   C271      1.39370      .   S
    C283   C281      1.40157      .   S
    C282   C280      1.40157      .   S
    C183   C181      1.40163      .   S
    C184   C182      1.40166      .   S
    Zn11   O215      2.11223      .   S
    Zn11   N364      2.11700  1_565   S
    Zn11   N366      2.14387      .   S
    Zn12   O405      2.11180      .   S
    Zn12   N365      2.11729  1_565   S
    Zn12   N367      2.14320      .   S
    Zn3    O380      2.10996      .   S
    Zn3    N352      2.13371      .   S
    Zn3    N354      2.14269      .   S
    Zn4    O381      2.10777      .   S
    Zn4    N353      2.13387      .   S
    Zn4    N355      2.14038      .   S
    C287   C289      1.40160      .   S
    C286   C288      1.40146      .   S
    C188   C190      1.40147      .   S
    C187   C189      1.40139      .   S
    H25    C171      1.08563  1_545   S
    H87    C271      1.08547      .   S
    H86    C270      1.08539      .   S
    H26    C172      1.08564  1_545   S
    C175   C177      1.39140      .   S
    C176   C178      1.37870      .   S
    C274   C276      1.39137      .   S
    C275   C277      1.39145      .   S
    H53    C218      1.08324      .   S
    H52    C217      1.08326      .   S
    H117   C313      1.08325      .   S
    H116   C312      1.08331      .   S
    N353   C222      1.34221      .   S
    N352   C221      1.34219      .   S
    N364   C316      1.34929  1_545   S
    N365   C317      1.34888  1_545   S
    C218   N351      1.38345      .   S
    C217   N350      1.38288      .   S
    C313   N363      1.38291      .   S
    C312   N362      1.38232      .   S
    C171   C169      1.39972      .   S
    C270   C136      1.39996      .   S
    C271   C269      1.39985      .   S
    C172   C170      1.39975      .   S
    H37    C179      1.09758      .   S
    H97    C279      1.09649      .   S
    H96    C278      1.09769      .   S
    H36    C180      1.09772  1_455   S
    C281   C279      1.51464      .   S
    C281   C291      1.40051      .   S
    C280   C278      1.51445      .   S
    C280   C290      1.40034      .   S
    C181   C179      1.51433      .   S
    C181   C191      1.40049      .   S
    C182   C180      1.51459      .   S
    C182   C192      1.40045      .   S
    C289   C291      1.39145      .   S
    C289   H107      1.08613      .   S
    C288   C290      1.39147      .   S
    C288   H106      1.08611      .   S
    C190   C192      1.39146      .   S
    C190   H43       1.08618      .   S
    C189   C191      1.39152      .   S
    C189   H42       1.08627      .   S
    H74    C245      1.08956      .   S
    C178   H33       1.08437      .   S
    C178   N349      1.35959      .   S
    H75    C246      1.08947      .   S
    C177   H31       1.08594      .   S
    C177   N348      1.34427      .   S
    H144   C341      1.08950      .   S
    H143   C340      1.08949      .   S
    C276   H93       1.08595      .   S
    C276   N360      1.34434      .   S
    C277   H92       1.08624      .   S
    C277   N361      1.34339      .   S
    C222   N351      1.37564      .   S
    C222   C224      1.45969      .   S
    C221   N350      1.37568      .   S
    C221   C223      1.45968      .   S
    C316   N362      1.37528  1_565   S
    C316   C318      1.45954      .   S
    C317   N363      1.37595  1_565   S
    C317   C319      1.45960      .   S
    C179   H35       1.09885      .   S
    C179   N344      1.47441  1_545   S
    C279   H95       1.09943      .   S
    C279   N357      1.47528      .   S
    C278   H94       1.09909      .   S
    C278   N356      1.47455      .   S
    C180   H34       1.09951  1_655   S
    C180   N345      1.47452  1_545   S
    N351   C234      1.47426      .   S
    N350   C233      1.47473      .   S
    N362   C328      1.47560      .   S
    N363   C329      1.47454      .   S
    C169   N348      1.36400      .   S
    C169   C167      1.45977      .   S
    C269   N361      1.36346      .   S
    C269   C135      1.45959      .   S
    C136   N360      1.36399      .   S
    C136   C134      1.45904      .   S
    C170   N349      1.36410      .   S
    C170   C168      1.45942      .   S
    C291   H109      1.08947      .   S
    C290   H108      1.08946      .   S
    C191   H44       1.08964      .   S
    C192   H45       1.08946      .   S
    N366   C318      1.36401      .   S
    N366   C326      1.34431      .   S
    N367   C319      1.36397      .   S
    N367   C327      1.34426      .   S
    N355   C224      1.36400      .   S
    N355   C232      1.34423      .   S
    N354   C223      1.36398      .   S
    N354   C231      1.34432      .   S
    N348   Zn32      2.14001      .   S
    N349   Zn0       2.14393      .   S
    N361   Zn8       2.14442      .   S
    N360   Zn7       2.14198      .   S
    H127   C326      1.22307      .   S
    H72    C243      1.08612      .   S
    H73    C244      1.08609      .   S
    H142   C339      1.08615      .   S
    H141   C338      1.08619      .   S
    H126   C327      1.08586      .   S
    H64    C234      1.09907      .   S
    H65    C233      1.09946  1_655   S
    H63    C232      1.08601      .   S
    H62    C231      1.08600      .   S
    H129   C329      1.09910      .   S
    H128   C328      1.09912      .   S
    C245   C243      1.39142      .   S
    C245   C235      1.40041      .   S
    C246   C244      1.39129      .   S
    C246   C236      1.40041      .   S
    C341   C339      1.39141      .   S
    C341   C331      1.40032      .   S
    C340   C338      1.39145      .   S
    C340   C330      1.40042      .   S
    C224   C226      1.39971      .   S
    C223   C225      1.39967      .   S
    C318   C320      1.39978      .   S
    C319   C321      1.39979      .   S
    N344   C167      1.37557      .   S
    N344   C163      1.38285      .   S
    N357   C135      1.37571      .   S
    N357   C268      1.38277      .   S
    N356   C134      1.37576      .   S
    N356   C267      1.38286      .   S
    N345   C168      1.37530      .   S
    N345   C164      1.38292      .   S
    C234   C236      1.51435      .   S
    C234   H66       1.09753      .   S
    C233   C235      1.51472      .   S
    C233   H67       1.09777  1_455   S
    C329   C331      1.51434      .   S
    C329   H131      1.09769  1_545   S
    C328   C330      1.51444      .   S
    C328   H130      1.09262  1_545   S
    C167   N346      1.34218      .   S
    C134   N358      1.34220      .   S
    C135   N359      1.34241      .   S
    C168   N347      1.34220      .   S
    C326   C324      1.39138      .   S
    C327   C325      1.39151      .   S
    C232   C230      1.39132      .   S
    C231   C229      1.39137      .   S
    C243   C241      1.40166      .   S
    C244   C242      1.40148      .   S
    C339   C337      1.40149      .   S
    C338   C336      1.40163      .   S
    C236   C238      1.40160      .   S
    C235   C237      1.40157      .   S
    C331   C333      1.40168      .   S
    C330   C332      1.40169      .   S
    C226   H57       1.08513      .   S
    C226   C228      1.39376      .   S
    C225   H56       1.08550      .   S
    C225   C227      1.39369      .   S
    C320   H120      1.08546      .   S
    C320   C322      1.39366      .   S
    C321   H121      1.08542      .   S
    C321   C323      1.39363      .   S
    C163   H21       0.98290  1_565   S
    C163   C165      1.37705      .   S
    C268   H83       1.08301      .   S
    C268   C133      1.37714      .   S
    C267   H82       1.08330      .   S
    C267   C132      1.37708      .   S
    C164   H22       0.99194  1_565   S
    C164   C166      1.37720      .   S
    N346   Zn32      2.13362      .   S
    N346   C165      1.37065      .   S
    N358   Zn7       2.13437      .   S
    N358   C132      1.37121      .   S
    N359   Zn8       2.13487      .   S
    N359   C133      1.37075      .   S
    N347   Zn0       2.13797      .   S
    N347   C166      1.37079      .   S
    O396   Zn32      2.11141      .   S
    O396   C247      1.27318      .   S
    O397   Zn0       2.10491      .   S
    O397   C248      1.27309      .   S
    O420   Zn7       2.11056      .   S
    O420   C342      1.27197      .   S
    O421   Zn8       2.10993      .   S
    O421   C343      1.27284      .   S
    C324   C322      1.39305      .   S
    C324   H125      1.08802  1_455   S
    C325   C323      1.39292      .   S
    C325   H124      1.08770      .   S
    C230   C228      1.39300      .   S
    C230   H61       1.08775      .   S
    C229   C227      1.39295      .   S
    C229   H60       1.08774      .   S
    O372   C159      1.24357      .   S
    O373   C160      1.23937      .   S
    C241   C247      1.50283      .   S
    C241   C239      1.40352      .   S
    C242   C248      1.50187      .   S
    C242   C240      1.40345      .   S
    O404   C263      1.24399      .   S
    O208   C264      1.24389      .   S
    C337   C342      1.50163      .   S
    C337   C335      1.40353      .   S
    C336   C343      1.50260  1_455   S
    C336   C334      1.40353      .   S
    Zn32   O211      2.06312      .   S
    Zn0    O212      2.06192      .   S
    Zn7    O376      2.06622      .   S
    Zn8    O377      2.06404      .   S
    C237   C239      1.39365      .   S
    C237   H68       1.08985      .   S
    C238   C240      1.39453      .   S
    C238   H69       1.08982      .   S
    C333   C335      1.39441      .   S
    C333   H138      1.08994  1_545   S
    C332   C334      1.39451      .   S
    C332   H137      1.09010  1_545   S
    C322   H122      1.08981      .   S
    C228   H59       1.08972      .   S
    C323   H123      1.08969      .   S
    C227   H58       1.08978      .   S
    C165   H23       1.08475      .   S
    C133   H85       1.08462      .   S
    C132   H84       1.08476      .   S
    C166   H24       1.08468      .   S
    C247   O398      1.27668      .   S
    C248   O399      1.27706      .   S
    C342   O422      1.27840      .   S
    C343   O423      1.27708      .   S
    H16    C146      1.08775      .   S
    H15    C145      1.08709      .   S
    H76    C249      1.08779      .   S
    H77    C250      1.08774      .   S
    C239   H70       1.09062      .   S
    C240   H71       1.08918      .   S
    C335   H140      1.08932      .   S
    C334   H139      1.08927      .   S
    O211   C265      1.28594      .   S
    O377   C162      1.28725      .   S
    O376   C161      1.28623      .   S
    O212   C266      1.28617      .   S
    C160   O375      1.32561      .   S
    C160   C156      1.49116      .   S
    C159   O374      1.32321      .   S
    C159   C155      1.48863      .   S
    C263   O209      1.32271      .   S
    C263   C259      1.48910      .   S
    C264   O210      1.32275      .   S
    C264   C260      1.48959      .   S
    O374   Zn5       2.05883      .   S
    O375   Zn6       2.06695      .   S
    O210   Zn14      2.06669      .   S
    O209   Zn13      2.06727      .   S
    C146   C156      1.39929      .   S
    C146   C148      1.39980      .   S
    C145   C155      1.39960      .   S
    C145   C147      1.39928      .   S
    C249   C259      1.39942  1_565   S
    C249   C251      1.39964      .   S
    C250   C260      1.39956  1_565   S
    C250   C252      1.39979      .   S
    O398   Zn5       1.97475      .   S
    O399   Zn6       1.97307      .   S
    O422   Zn13      1.97029      .   S
    O423   Zn14      1.97039      .   S
    C156   C154      1.39899      .   S
    C155   C153      1.39904      .   S
    C259   C257      1.39927      .   S
    C260   C258      1.39946      .   S
    C265   C251      1.49885      .   S
    C265   O213      1.27172      .   S
    C162   C148      1.49886      .   S
    C162   O379      1.27161      .   S
    C161   C147      1.49767      .   S
    C161   O378      1.27132      .   S
    C266   C252      1.49856      .   S
    C266   O214      1.27163      .   S
    C148   C150      1.40420      .   S
    C251   C253      1.40526      .   S
    C147   C149      1.40676      .   S
    C252   C254      1.40528      .   S
    Zn5    O213      2.00405      .   S
    Zn5    O384      1.90856      .   S
    Zn6    O214      2.00396      .   S
    Zn6    O385      1.90746      .   S
    Zn14   O379      2.00336      .   S
    Zn14   O409      1.90940      .   S
    Zn13   O378      2.00238      .   S
    Zn13   O408      1.90870      .   S
    C154   H20       1.08752      .   S
    C154   C152      1.40004      .   S
    C153   H19       1.08742      .   S
    C153   C151      1.40006      .   S
    C257   H80       1.08753      .   S
    C257   C255      1.40043  1_545   S
    C258   H81       1.08748      .   S
    C258   C256      1.40055  1_545   S
    O386   C207      1.23807      .   S
    O387   C100      1.23804      .   S
    O410   C306      1.23823      .   S
    O411   C307      1.23823      .   S
    C253   C255      1.39815      .   S
    C253   H78       1.08896      .   S
    C150   C152      1.39921      .   S
    C150   H18       1.08941      .   S
    C149   C151      1.39834      .   S
    C149   H17       1.08891      .   S
    C254   C256      1.39832      .   S
    C254   H79       1.08894      .   S
    O384   C207      1.31386      .   S
    O385   C100      1.31376      .   S
    O408   C306      1.31398  1_545   S
    O409   C307      1.31402  1_545   S
    O374   Zn32      2.08059      .   S
    O375   Zn0       2.07990      .   S
    O390   Zn3       2.08139      .   S
    O391   Zn4       2.08058      .   S
    O209   Zn7       2.08152      .   S
    O210   Zn8       2.08196      .   S
    O414   Zn11      2.08094      .   S
    O415   Zn12      2.08096      .   S
