# CIF file generated by openbabel 2.4.90, see http://openbabel.sf.net
data_I
_chemical_name_common ''
_cell_length_a 22.353
_cell_length_b 16.76
_cell_length_c 18.262
_cell_angle_alpha 62.678
_cell_angle_beta 72.41
_cell_angle_gamma 90.054
_space_group_name_H-M_alt 'P 1'
_space_group_name_Hall 'P 1'
loop_
    _symmetry_equiv_pos_as_xyz
    x,y,z
loop_
    _atom_site_label
    _atom_site_type_symbol
    _atom_site_fract_x
    _atom_site_fract_y
    _atom_site_fract_z
    _atom_site_occupancy
    Zn0     Zn   0.78974   0.78889   0.64776   1.000
    Zn1     Zn   0.29865   0.46637   0.16006   1.000
    Zn2     Zn   0.79725   0.46581   0.16043   1.000
    Zn3     Zn   0.20847   0.43552   0.35344   1.000
    Zn4     Zn   0.70843   0.43566   0.35355   1.000
    Zn5     Zn   0.20265   0.62603   0.84003   1.000
    Zn6     Zn   0.70095   0.62559   0.84059   1.000
    Zn7     Zn   0.38544   0.28882   0.64780   1.000
    Zn8     Zn   0.88541   0.28868   0.64792   1.000
    Zn9     Zn   0.12031   0.96581   0.16006   1.000
    Zn10    Zn   0.62032   0.96555   0.16020   1.000
    Zn11    Zn   0.11440   0.93598   0.35299   1.000
    Zn12    Zn   0.61440   0.93572   0.35319   1.000
    Zn13    Zn   0.37958   0.12592   0.84090   1.000
    Zn14    Zn   0.87941   0.12589   0.84090   1.000
    Zn15    Zn   0.29147   0.78932   0.64707   1.000
    C16     C    0.67471   0.44323   0.96702   1.000
    C17     C    0.16213   0.35527   0.27487   1.000
    C18     C    0.66143   0.35494   0.27534   1.000
    C19     C    0.11011   0.11437   0.20487   1.000
    C20     C    0.32550   0.41060   0.03350   1.000
    C21     C    0.82479   0.41054   0.03348   1.000
    C22     C    0.33841   0.63051   0.72527   1.000
    C23     C    0.83761   0.63043   0.72500   1.000
    C24     C    0.38967   0.31937   0.79581   1.000
    C25     C    0.88951   0.31949   0.79569   1.000
    C26     C    0.32678   0.34412   0.31825   1.000
    C27     C    0.82647   0.34405   0.31796   1.000
    C28     C    0.17517   0.44341   0.96674   1.000
    O29     O    0.80706   0.16617   0.64662   1.000
    O30     O    0.32800   0.17146   0.75667   1.000
    O31     O    0.82792   0.17117   0.75659   1.000
    O32     O    0.23161   0.84700   0.71266   1.000
    O33     O    0.72988   0.84657   0.71324   1.000
    O34     O    0.19548   0.73694   0.85551   1.000
    O35     O    0.69506   0.73654   0.85607   1.000
    O36     O    0.03828   0.84637   0.37103   1.000
    C37     C    0.61019   0.11415   0.20492   1.000
    C38     C    0.17338   0.66166   0.68262   1.000
    C39     C    0.67206   0.66119   0.68318   1.000
    C40     C    0.15797   0.91064   0.03324   1.000
    C41     C    0.65795   0.91050   0.03347   1.000
    C42     C    0.29982   0.13039   0.72603   1.000
    C43     C    0.79968   0.13002   0.72606   1.000
    C44     C    0.21401   0.81940   0.79547   1.000
    C45     C    0.71311   0.81904   0.79599   1.000
    C46     C    0.01382   0.84369   0.31750   1.000
    C47     C    0.51378   0.84360   0.31766   1.000
    C48     C    0.34223   0.94395   0.96777   1.000
    C49     C    0.84220   0.94390   0.96783   1.000
    C50     C    0.20008   0.85574   0.27490   1.000
    C51     C    0.70008   0.85549   0.27506   1.000
    C52     C    0.28604   0.61467   0.20508   1.000
    C53     C    0.78590   0.61450   0.20509   1.000
    C54     C    0.48589   0.16126   0.68330   1.000
    C55     C    0.98573   0.16102   0.68344   1.000
    O56     O    0.31886   0.48280   0.04426   1.000
    O57     O    0.81755   0.48255   0.04446   1.000
    O58     O    0.32026   0.33176   0.09222   1.000
    O59     O    0.81996   0.33177   0.09208   1.000
    O60     O    0.37032   0.66644   0.64587   1.000
    O61     O    0.86989   0.66676   0.64601   1.000
    O62     O    0.29534   0.67202   0.75563   1.000
    O63     O    0.79397   0.67128   0.75569   1.000
    O64     O    0.41353   0.34672   0.71307   1.000
    O65     O    0.91346   0.34681   0.71290   1.000
    O66     O    0.37833   0.23700   0.85600   1.000
    O67     O    0.87809   0.23710   0.85590   1.000
    O68     O    0.27600   0.34687   0.37192   1.000
    O69     O    0.77587   0.34705   0.37178   1.000
    O70     O    0.34690   0.39390   0.23503   1.000
    O71     O    0.84622   0.39333   0.23470   1.000
    O72     O    0.18241   0.52641   0.95581   1.000
    O73     O    0.68161   0.52621   0.95622   1.000
    O74     O    0.18002   0.42329   0.90812   1.000
    O75     O    0.67969   0.42321   0.90831   1.000
    O76     O    0.13003   0.31208   0.35420   1.000
    O77     O    0.62939   0.31147   0.35469   1.000
    O78     O    0.20547   0.42693   0.24443   1.000
    O79     O    0.70458   0.42681   0.24504   1.000
    O80     O    0.08627   0.05897   0.28762   1.000
    O81     O    0.58631   0.05875   0.28766   1.000
    O82     O    0.12138   0.09216   0.14471   1.000
    O83     O    0.62153   0.09195   0.14475   1.000
    O84     O    0.22410   0.71835   0.62882   1.000
    O85     O    0.72288   0.71769   0.62952   1.000
    O86     O    0.15354   0.62795   0.76585   1.000
    O87     O    0.65187   0.62782   0.76640   1.000
    O88     O    0.15886   0.98276   0.04419   1.000
    O89     O    0.65888   0.98265   0.04434   1.000
    O90     O    0.13371   0.83182   0.09172   1.000
    O91     O    0.63369   0.83170   0.09202   1.000
    O92     O    0.30726   0.16663   0.64656   1.000
    O93     O    0.53827   0.84619   0.37120   1.000
    O94     O    0.03482   0.89340   0.23424   1.000
    O95     O    0.53479   0.89333   0.23440   1.000
    O96     O    0.34100   0.02703   0.95677   1.000
    O97     O    0.84096   0.02697   0.95685   1.000
    O98     O    0.36692   0.92374   0.90936   1.000
    O99     O    0.86685   0.92372   0.90939   1.000
    O100    O    0.19273   0.81246   0.35434   1.000
    O101    O    0.69269   0.81213   0.35450   1.000
    O102    O    0.17184   0.92735   0.24434   1.000
    O103    O    0.67185   0.92711   0.24453   1.000
    O104    O    0.26838   0.55916   0.28782   1.000
    O105    O    0.76834   0.55909   0.28780   1.000
    O106    O    0.30482   0.59262   0.14483   1.000
    O107    O    0.80439   0.59227   0.14496   1.000
    O108    O    0.46140   0.21732   0.62982   1.000
    O109    O    0.96131   0.21718   0.62984   1.000
    O110    O    0.46505   0.12802   0.76659   1.000
    O111    O    0.96484   0.12776   0.76665   1.000
loop_
    _geom_bond_atom_site_label_1
    _geom_bond_atom_site_label_2
    _geom_bond_distance
    _geom_bond_site_symmetry_2
    _ccdc_geom_bond_type
    C40    O88       1.31358      .   S
    C40    O90       1.23824      .   S
    C41    O89       1.31344      .   S
    C41    O91       1.23833      .   S
    C21    O57       1.31381      .   S
    C21    O59       1.23807      .   S
    C20    O56       1.31378      .   S
    C20    O58       1.23800      .   S
    O88    Zn9       1.90956      .   S
    O56    Zn1       1.90781      .   S
    O89    Zn10      1.90848      .   S
    O57    Zn2       1.90872      .   S
    O82    Zn9       2.00362  1_545   S
    O82    C19       1.27181      .   S
    O83    Zn10      2.00374  1_545   S
    O83    C37       1.27166      .   S
    O106   Zn1       2.00244      .   S
    O106   C52       1.27193      .   S
    O107   Zn2       2.00490      .   S
    O107   C53       1.27168      .   S
    Zn1    O70       1.97021      .   S
    Zn1    O78       2.06676      .   S
    Zn9    O94       1.97019      .   S
    Zn9    O102      2.06713      .   S
    Zn10   O95       1.96995      .   S
    Zn10   O103      2.06783      .   S
    Zn2    O71       1.97509      .   S
    Zn2    O79       2.05942      .   S
    C19    O80       1.28610      .   S
    C37    O81       1.28602      .   S
    C52    O104      1.28563      .   S
    C53    O105      1.28502      .   S
    O94    C46       1.27724      .   S
    O95    C47       1.27728      .   S
    O71    C27       1.27663      .   S
    O70    C26       1.27680      .   S
    O102   C50       1.32274      .   S
    O78    C17       1.32274      .   S
    O103   C51       1.32274      .   S
    O79    C18       1.32323      .   S
    C17    O76       1.24324      .   S
    C50    O100      1.24398      .   S
    C51    O101      1.24388      .   S
    C18    O77       1.24345      .   S
    O80    Zn11      2.06576  1_545   S
    O81    Zn12      2.06624  1_545   S
    O105   Zn4       2.06348      .   S
    O104   Zn3       2.06607      .   S
    C46    O36       1.27274      .   S
    C47    O93       1.27269      .   S
    C27    O69       1.27328      .   S
    C26    O68       1.27287      .   S
    Zn11   O36       2.11223      .   S
    Zn12   O93       2.11180      .   S
    Zn3    O68       2.10996      .   S
    Zn4    O69       2.10777      .   S
    O84    Zn15      2.11141      .   S
    O84    C38       1.27318      .   S
    O85    Zn0       2.10491      .   S
    O85    C39       1.27309      .   S
    O108   Zn7       2.11056      .   S
    O108   C54       1.27197      .   S
    O109   Zn8       2.10993      .   S
    O109   C55       1.27284      .   S
    O60    C22       1.24357      .   S
    O61    C23       1.23937      .   S
    O92    C42       1.24399      .   S
    O29    C43       1.24389      .   S
    Zn15   O32       2.06312      .   S
    Zn0    O33       2.06192      .   S
    Zn7    O64       2.06622      .   S
    Zn8    O65       2.06404      .   S
    C38    O86       1.27668      .   S
    C39    O87       1.27706      .   S
    C54    O110      1.27840      .   S
    C55    O111      1.27708      .   S
    O32    C44       1.28594      .   S
    O65    C25       1.28725      .   S
    O64    C24       1.28623      .   S
    O33    C45       1.28617      .   S
    C23    O63       1.32561      .   S
    C22    O62       1.32321      .   S
    C42    O30       1.32271      .   S
    C43    O31       1.32275      .   S
    O62    Zn5       2.05883      .   S
    O63    Zn6       2.06695      .   S
    O31    Zn14      2.06669      .   S
    O30    Zn13      2.06727      .   S
    O86    Zn5       1.97475      .   S
    O87    Zn6       1.97307      .   S
    O110   Zn13      1.97029      .   S
    O111   Zn14      1.97039      .   S
    C44    O34       1.27172      .   S
    C25    O67       1.27161      .   S
    C24    O66       1.27132      .   S
    C45    O35       1.27163      .   S
    Zn5    O34       2.00405      .   S
    Zn5    O72       1.90856      .   S
    Zn6    O35       2.00396      .   S
    Zn6    O73       1.90746      .   S
    Zn14   O67       2.00336      .   S
    Zn14   O97       1.90940      .   S
    Zn13   O66       2.00238      .   S
    Zn13   O96       1.90870      .   S
    O74    C28       1.23807      .   S
    O75    C16       1.23804      .   S
    O98    C48       1.23823      .   S
    O99    C49       1.23823      .   S
    O72    C28       1.31386      .   S
    O73    C16       1.31376      .   S
    O96    C48       1.31398  1_545   S
    O97    C49       1.31402  1_545   S
    O62    Zn15      2.08059      .   S
    O63    Zn0       2.07990      .   S
    O78    Zn3       2.08139      .   S
    O79    Zn4       2.08058      .   S
    O30    Zn7       2.08152      .   S
    O31    Zn8       2.08196      .   S
    O102   Zn11      2.08094      .   S
    O103   Zn12      2.08096      .   S
