# CIF file generated by openbabel 2.4.90, see http://openbabel.sf.net
data_I
_chemical_name_common ''
_cell_length_a 22.353
_cell_length_b 16.76
_cell_length_c 18.262
_cell_angle_alpha 62.678
_cell_angle_beta 72.41
_cell_angle_gamma 90.054
_space_group_name_H-M_alt 'P 1'
_space_group_name_Hall 'P 1'
loop_
    _symmetry_equiv_pos_as_xyz
    x,y,z
loop_
    _atom_site_label
    _atom_site_type_symbol
    _atom_site_fract_x
    _atom_site_fract_y
    _atom_site_fract_z
    _atom_site_occupancy
    C0      C    0.67471   0.44323   0.96702   1.000
    C1      C    0.16213   0.35527   0.27487   1.000
    C2      C    0.66143   0.35494   0.27534   1.000
    C3      C    0.11011   0.11437   0.20487   1.000
    C4      C    0.32550   0.41060   0.03350   1.000
    C5      C    0.82479   0.41054   0.03348   1.000
    C6      C    0.33841   0.63051   0.72527   1.000
    C7      C    0.83761   0.63043   0.72500   1.000
    C8      C    0.38967   0.31937   0.79581   1.000
    C9      C    0.88951   0.31949   0.79569   1.000
    C10     C    0.32678   0.34412   0.31825   1.000
    C11     C    0.82647   0.34405   0.31796   1.000
    C12     C    0.17517   0.44341   0.96674   1.000
    C13     C    0.61019   0.11415   0.20492   1.000
    C14     C    0.17338   0.66166   0.68262   1.000
    C15     C    0.67206   0.66119   0.68318   1.000
    C16     C    0.15797   0.91064   0.03324   1.000
    C17     C    0.65795   0.91050   0.03347   1.000
    C18     C    0.29982   0.13039   0.72603   1.000
    C19     C    0.79968   0.13002   0.72606   1.000
    C20     C    0.21401   0.81940   0.79547   1.000
    C21     C    0.71311   0.81904   0.79599   1.000
    C22     C    0.01382   0.84369   0.31750   1.000
    C23     C    0.51378   0.84360   0.31766   1.000
    C24     C    0.34223   0.94395   0.96777   1.000
    C25     C    0.84220   0.94390   0.96783   1.000
    C26     C    0.20008   0.85574   0.27490   1.000
    C27     C    0.70008   0.85549   0.27506   1.000
    C28     C    0.28604   0.61467   0.20508   1.000
    C29     C    0.78590   0.61450   0.20509   1.000
    C30     C    0.48589   0.16126   0.68330   1.000
    C31     C    0.98573   0.16102   0.68344   1.000
