# CIF file generated by openbabel 2.4.90, see http://openbabel.sf.net
data_I
_chemical_name_common ''
_cell_length_a 22.353
_cell_length_b 16.76
_cell_length_c 18.262
_cell_angle_alpha 62.678
_cell_angle_beta 72.41
_cell_angle_gamma 90.054
_space_group_name_H-M_alt 'P 1'
_space_group_name_Hall 'P 1'
loop_
    _symmetry_equiv_pos_as_xyz
    x,y,z
loop_
    _atom_site_label
    _atom_site_type_symbol
    _atom_site_fract_x
    _atom_site_fract_y
    _atom_site_fract_z
    _atom_site_occupancy
    N0      N    0.86986   0.53884   0.45187   1.000
    N1      N    0.40421   0.03869   0.45175   1.000
    N2      N    0.09586   0.49034   0.54869   1.000
    N3      N    0.27776   0.80542   0.14925   1.000
    N4      N    0.62964   0.99035   0.54916   1.000
    N5      N    0.90338   0.03825   0.45213   1.000
    N6      N    0.59543   0.49015   0.54869   1.000
    N7      N    0.36982   0.53892   0.45192   1.000
    N8      N    0.85254   0.45415   0.85141   1.000
    N9      N    0.64701   0.30469   0.14906   1.000
    N10     N    0.35299   0.45410   0.85149   1.000
    N11     N    0.12957   0.99027   0.54885   1.000
    N12     N    0.72195   0.95378   0.85186   1.000
    N13     N    0.14726   0.30489   0.14888   1.000
    N14     N    0.22220   0.95409   0.85160   1.000
    N15     N    0.77777   0.80529   0.14929   1.000
    Zr16    Zr   0.88160   0.15613   0.77833   1.000
    O17     O    0.84165   0.00634   0.93021   1.000
    O18     O    0.87419   0.28026   0.80451   1.000
    O19     O    0.97702   0.11198   0.69265   1.000
    O20     O    0.81608   0.08777   0.79175   1.000
    Zr21    Zr   0.72950   0.65603   0.77793   1.000
    O22     O    0.69335   0.50597   0.92978   1.000
    O23     O    0.78839   0.58792   0.79122   1.000
    O24     O    0.72386   0.78000   0.80451   1.000
    O25     O    0.67652   0.61192   0.69234   1.000
    Zr26    Zr   0.11818   0.93368   0.22255   1.000
    O27     O    0.18368   0.87899   0.20922   1.000
    O28     O    0.02260   0.80400   0.30820   1.000
    O29     O    0.12557   0.08401   0.19613   1.000
    O30     O    0.15827   0.93580   0.07071   1.000
    Zr31    Zr   0.26988   0.43376   0.22285   1.000
    O32     O    0.32282   0.30409   0.30849   1.000
    O33     O    0.21120   0.37878   0.20926   1.000
    O34     O    0.30639   0.43583   0.07087   1.000
    O35     O    0.27559   0.58427   0.19643   1.000
    Zr36    Zr   0.23057   0.65634   0.77753   1.000
    O37     O    0.19403   0.50622   0.92948   1.000
    O38     O    0.28920   0.58807   0.79109   1.000
    O39     O    0.17745   0.61225   0.69202   1.000
    O40     O    0.22462   0.78031   0.80414   1.000
    Zr41    Zr   0.38172   0.15626   0.77832   1.000
    O42     O    0.37440   0.28027   0.80455   1.000
    O43     O    0.34171   0.00646   0.93018   1.000
    O44     O    0.47713   0.11213   0.69270   1.000
    O45     O    0.31624   0.08800   0.79166   1.000
    Zr46    Zr   0.61820   0.93349   0.22271   1.000
    O47     O    0.52259   0.80391   0.30833   1.000
    O48     O    0.68369   0.87881   0.20933   1.000
    O49     O    0.62553   0.08381   0.19626   1.000
    O50     O    0.65819   0.93558   0.07091   1.000
    Zr51    Zr   0.76933   0.43356   0.22295   1.000
    O52     O    0.77530   0.58410   0.19649   1.000
    O53     O    0.82226   0.30387   0.30858   1.000
    O54     O    0.71072   0.37856   0.20945   1.000
    O55     O    0.80585   0.43574   0.07090   1.000
    O56     O    0.62246   0.94880   0.34689   1.000
    O57     O    0.70331   0.44885   0.34692   1.000
    O58     O    0.37730   0.29562   0.65415   1.000
    O59     O    0.12244   0.94892   0.34669   1.000
    O60     O    0.29652   0.79568   0.65357   1.000
    O61     O    0.79539   0.79532   0.65401   1.000
    O62     O    0.87724   0.29550   0.65416   1.000
    O63     O    0.20372   0.44897   0.34686   1.000
loop_
    _geom_bond_atom_site_label_1
    _geom_bond_atom_site_label_2
    _geom_bond_distance
    _geom_bond_site_symmetry_2
    _ccdc_geom_bond_type
    Zr16   O17       2.62678      .   S
    N15    O17       3.68277  1_564   S
    Zr16   O18       2.33442      .   S
    N8     O18       3.39201      .   S
    Zr16   O19       2.56772      .   S
    N11    O19       4.71219  1_465   S
    Zr16   O20       1.74358      .   S
    N12    O20       2.64718  1_565   S
    Zr21   O22       2.62831      .   S
    N9     O22       3.68430  1_554   S
    Zr21   O23       1.74246      .   S
    N8     O23       2.64343      .   S
    Zr21   O24       2.33607      .   S
    N12    O24       3.39454      .   S
    Zr21   O25       2.56330      .   S
    N6     O25       4.70259      .   S
    Zr26   O27       1.74195      .   S
    N3     O27       2.64494      .   S
    Zr26   O28       2.56632      .   S
    N0     O28       4.70577  1_655   S
    Zr26   O29       2.33311  1_565   S
    N13    O29       3.39046      .   S
    Zr26   O30       2.62706      .   S
    N14    O30       3.68293  1_556   S
    Zr31   O32       2.56369      .   S
    N1     O32       4.70646      .   S
    Zr31   O33       1.74245      .   S
    N13    O33       2.64470      .   S
    Zr31   O34       2.62918      .   S
    N10    O34       3.68522  1_556   S
    Zr31   O35       2.33600      .   S
    N3     O35       3.39490      .   S
    Zr36   O37       2.62951      .   S
    N13    O37       3.68549  1_554   S
    Zr36   O38       1.73988      .   S
    N10    O38       2.64094      .   S
    Zr36   O39       2.56358      .   S
    N2     O39       4.70539      .   S
    Zr36   O40       2.33647      .   S
    N14    O40       3.39505      .   S
    Zr41   O42       2.33311      .   S
    N10    O42       3.39099      .   S
    Zr41   O43       2.62668      .   S
    N3     O43       3.68264  1_564   S
    Zr41   O44       2.56693      .   S
    N4     O44       4.70978  1_565   S
    Zr41   O45       1.74241      .   S
    N14    O45       2.64559  1_565   S
    Zr46   O47       2.56572      .   S
    N7     O47       4.70420      .   S
    Zr46   O48       1.74189      .   S
    N15    O48       2.64481      .   S
    Zr46   O49       2.33276  1_565   S
    N9     O49       3.39047      .   S
    Zr46   O50       2.62634      .   S
    N12    O50       3.68245  1_556   S
    Zr51   O52       2.33624      .   S
    N15    O52       3.39507      .   S
    Zr51   O53       2.56367      .   S
    N5     O53       4.70686      .   S
    Zr51   O54       1.74036      .   S
    N9     O54       2.64119      .   S
    Zr51   O55       2.62974      .   S
    N8     O55       3.68589  1_556   S
    Zr46   O56       2.42534      .   S
    N4     O56       4.10801      .   S
    Zr51   O57       2.42537      .   S
    N6     O57       4.10422      .   S
    N7     O58       4.10435      .   S
    Zr41   O58       2.42504      .   S
    N11    O59       4.10355      .   S
    Zr26   O59       2.42386      .   S
    Zr36   O60       2.42395      .   S
    N1     O60       4.09949  1_545   S
    N5     O61       4.10116  1_545   S
    Zr21   O61       2.42267      .   S
    Zr16   O62       2.42467      .   S
    N0     O62       4.10447      .   S
    N2     O63       4.10565      .   S
    Zr31   O63       2.42639      .   S
