# CIF file generated by openbabel 2.4.90, see http://openbabel.sf.net
data_I
_chemical_name_common ''
_cell_length_a 22.353
_cell_length_b 16.76
_cell_length_c 18.262
_cell_angle_alpha 62.678
_cell_angle_beta 72.41
_cell_angle_gamma 90.054
_space_group_name_H-M_alt 'P 1'
_space_group_name_Hall 'P 1'
loop_
    _symmetry_equiv_pos_as_xyz
    x,y,z
loop_
    _atom_site_label
    _atom_site_type_symbol
    _atom_site_fract_x
    _atom_site_fract_y
    _atom_site_fract_z
    _atom_site_occupancy
    N0      N    0.86986   0.53884   0.45187   1.000
    N1      N    0.40421   0.03869   0.45175   1.000
    N2      N    0.09586   0.49034   0.54869   1.000
    N3      N    0.27776   0.80542   0.14925   1.000
    N4      N    0.62964   0.99035   0.54916   1.000
    N5      N    0.90338   0.03825   0.45213   1.000
    N6      N    0.59543   0.49015   0.54869   1.000
    N7      N    0.36982   0.53892   0.45192   1.000
    N8      N    0.85254   0.45415   0.85141   1.000
    N9      N    0.64701   0.30469   0.14906   1.000
    N10     N    0.35299   0.45410   0.85149   1.000
    N11     N    0.12957   0.99027   0.54885   1.000
    N12     N    0.72195   0.95378   0.85186   1.000
    N13     N    0.14726   0.30489   0.14888   1.000
    N14     N    0.22220   0.95409   0.85160   1.000
    N15     N    0.77777   0.80529   0.14929   1.000
    Zr16    Zr   0.88160   0.15613   0.77833   1.000
    O17     O    0.84165   0.00634   0.93021   1.000
    O18     O    0.87074   0.29557   0.66168   1.000
    O19     O    0.88375   0.29543   0.64665   1.000
    O20     O    0.87419   0.28026   0.80451   1.000
    O21     O    0.97702   0.11198   0.69265   1.000
    O22     O    0.81608   0.08777   0.79175   1.000
    Zr23    Zr   0.72950   0.65603   0.77793   1.000
    O24     O    0.79815   0.79539   0.66156   1.000
    O25     O    0.79263   0.79525   0.64647   1.000
    O26     O    0.69335   0.50597   0.92978   1.000
    O27     O    0.78839   0.58792   0.79122   1.000
    O28     O    0.72386   0.78000   0.80451   1.000
    O29     O    0.67652   0.61192   0.69234   1.000
    Zr30    Zr   0.11818   0.93368   0.22255   1.000
    O31     O    0.18368   0.87899   0.20922   1.000
    O32     O    0.02260   0.80400   0.30820   1.000
    O33     O    0.12557   0.08401   0.19613   1.000
    O34     O    0.12895   0.95640   0.33918   1.000
    O35     O    0.11593   0.94143   0.35419   1.000
    O36     O    0.15827   0.93580   0.07071   1.000
    Zr37    Zr   0.26988   0.43376   0.22285   1.000
    O38     O    0.32282   0.30409   0.30849   1.000
    O39     O    0.21120   0.37878   0.20926   1.000
    O40     O    0.20096   0.45657   0.33932   1.000
    O41     O    0.20648   0.44138   0.35441   1.000
    O42     O    0.30639   0.43583   0.07087   1.000
    O43     O    0.27559   0.58427   0.19643   1.000
    Zr44    Zr   0.23057   0.65634   0.77753   1.000
    O45     O    0.19403   0.50622   0.92948   1.000
    O46     O    0.29930   0.79574   0.66109   1.000
    O47     O    0.29374   0.79562   0.64604   1.000
    O48     O    0.28920   0.58807   0.79109   1.000
    O49     O    0.17745   0.61225   0.69202   1.000
    O50     O    0.22462   0.78031   0.80414   1.000
    Zr51    Zr   0.38172   0.15626   0.77832   1.000
    O52     O    0.37440   0.28027   0.80455   1.000
    O53     O    0.34171   0.00646   0.93018   1.000
    O54     O    0.47713   0.11213   0.69270   1.000
    O55     O    0.37080   0.29569   0.66166   1.000
    O56     O    0.38380   0.29555   0.64665   1.000
    O57     O    0.31624   0.08800   0.79166   1.000
    Zr58    Zr   0.61820   0.93349   0.22271   1.000
    O59     O    0.52259   0.80391   0.30833   1.000
    O60     O    0.68369   0.87881   0.20933   1.000
    O61     O    0.62553   0.08381   0.19626   1.000
    O62     O    0.65819   0.93558   0.07091   1.000
    O63     O    0.62896   0.95629   0.33938   1.000
    O64     O    0.61596   0.94130   0.35439   1.000
    Zr65    Zr   0.76933   0.43356   0.22295   1.000
    O66     O    0.77530   0.58410   0.19649   1.000
    O67     O    0.82226   0.30387   0.30858   1.000
    O68     O    0.70607   0.44127   0.35446   1.000
    O69     O    0.70055   0.45644   0.33937   1.000
    O70     O    0.71072   0.37856   0.20945   1.000
    O71     O    0.80585   0.43574   0.07090   1.000
loop_
    _geom_bond_atom_site_label_1
    _geom_bond_atom_site_label_2
    _geom_bond_distance
    _geom_bond_site_symmetry_2
    _ccdc_geom_bond_type
    Zr16   O17       2.62678      .   S
    N15    O17       3.68277  1_564   S
    Zr16   O18       2.40876      .   S
    N0     O18       4.12424      .   S
    Zr16   O19       2.45194      .   S
    N0     O19       4.09148      .   S
    Zr16   O20       2.33442      .   S
    N8     O20       3.39201      .   S
    Zr16   O21       2.56772      .   S
    N11    O21       4.71219  1_465   S
    Zr16   O22       1.74358      .   S
    N12    O22       2.64718  1_565   S
    Zr23   O24       2.40662      .   S
    N5     O24       4.12093  1_545   S
    Zr23   O25       2.45008      .   S
    N5     O25       4.08817  1_545   S
    Zr23   O26       2.62831      .   S
    N9     O26       3.68430  1_554   S
    Zr23   O27       1.74246      .   S
    N8     O27       2.64343      .   S
    Zr23   O28       2.33607      .   S
    N12    O28       3.39454      .   S
    Zr23   O29       2.56330      .   S
    N6     O29       4.70259      .   S
    Zr30   O31       1.74195      .   S
    N3     O31       2.64494      .   S
    Zr30   O32       2.56632      .   S
    N0     O32       4.70577  1_655   S
    Zr30   O33       2.33311  1_565   S
    N13    O33       3.39046      .   S
    Zr30   O34       2.40699      .   S
    N11    O34       4.12424      .   S
    Zr30   O35       2.45198      .   S
    N11    O35       4.08956      .   S
    Zr30   O36       2.62706      .   S
    N14    O36       3.68293  1_556   S
    Zr37   O38       2.56369      .   S
    N1     O38       4.70646      .   S
    Zr37   O39       1.74245      .   S
    N13    O39       2.64470      .   S
    Zr37   O40       2.41046      .   S
    N2     O40       4.12540      .   S
    Zr37   O41       2.45367      .   S
    N2     O41       4.09266      .   S
    Zr37   O42       2.62918      .   S
    N10    O42       3.68522  1_556   S
    Zr37   O43       2.33600      .   S
    N3     O43       3.39490      .   S
    Zr44   O45       2.62951      .   S
    N13    O45       3.68549  1_554   S
    Zr44   O46       2.40812      .   S
    N1     O46       4.11920  1_545   S
    Zr44   O47       2.45114      .   S
    N1     O47       4.08655  1_545   S
    Zr44   O48       1.73988      .   S
    N10    O48       2.64094      .   S
    Zr44   O49       2.56358      .   S
    N2     O49       4.70539      .   S
    Zr44   O50       2.33647      .   S
    N14    O50       3.39505      .   S
    Zr51   O52       2.33311      .   S
    N10    O52       3.39099      .   S
    Zr51   O53       2.62668      .   S
    N3     O53       3.68264  1_564   S
    Zr51   O54       2.56693      .   S
    N4     O54       4.70978  1_565   S
    Zr51   O55       2.40922      .   S
    N7     O55       4.12400      .   S
    Zr51   O56       2.45220      .   S
    N7     O56       4.09146      .   S
    Zr51   O57       1.74241      .   S
    N14    O57       2.64559  1_565   S
    Zr58   O59       2.56572      .   S
    N7     O59       4.70420      .   S
    Zr58   O60       1.74189      .   S
    N15    O60       2.64481      .   S
    Zr58   O61       2.33276  1_565   S
    N9     O61       3.39047      .   S
    Zr58   O62       2.62634      .   S
    N12    O62       3.68245  1_556   S
    Zr58   O63       2.40851      .   S
    N4     O63       4.12861      .   S
    Zr58   O64       2.45341      .   S
    N4     O64       4.09411      .   S
    Zr65   O66       2.33624      .   S
    N15    O66       3.39507      .   S
    Zr65   O67       2.56367      .   S
    N5     O67       4.70686      .   S
    Zr65   O68       2.45284      .   S
    N6     O68       4.09114      .   S
    Zr65   O69       2.40926      .   S
    N6     O69       4.12407      .   S
    Zr65   O70       1.74036      .   S
    N9     O70       2.64119      .   S
    Zr65   O71       2.62974      .   S
    N8     O71       3.68589  1_556   S
