# CIF file generated by openbabel 2.4.90, see http://openbabel.sf.net
data_I
_chemical_name_common ''
_cell_length_a 22.353
_cell_length_b 16.76
_cell_length_c 18.262
_cell_angle_alpha 62.678
_cell_angle_beta 72.41
_cell_angle_gamma 90.054
_space_group_name_H-M_alt 'P 1'
_space_group_name_Hall 'P 1'
loop_
    _symmetry_equiv_pos_as_xyz
    x,y,z
loop_
    _atom_site_label
    _atom_site_type_symbol
    _atom_site_fract_x
    _atom_site_fract_y
    _atom_site_fract_z
    _atom_site_occupancy
    Zr0     Zr   0.29147   0.78932   0.64707   1.000
    Zr1     Zr   0.78974   0.78889   0.64776   1.000
    Zr2     Zr   0.29865   0.46637   0.16006   1.000
    Zr3     Zr   0.79725   0.46581   0.16043   1.000
    Zr4     Zr   0.20847   0.43552   0.35344   1.000
    Zr5     Zr   0.70843   0.43566   0.35355   1.000
    Zr6     Zr   0.20265   0.62603   0.84003   1.000
    Zr7     Zr   0.70095   0.62559   0.84059   1.000
    Zr8     Zr   0.38544   0.28882   0.64780   1.000
    Zr9     Zr   0.88541   0.28868   0.64792   1.000
    Zr10    Zr   0.12031   0.96581   0.16006   1.000
    Zr11    Zr   0.62032   0.96555   0.16020   1.000
    Zr12    Zr   0.11440   0.93598   0.35299   1.000
    Zr13    Zr   0.61440   0.93572   0.35319   1.000
    Zr14    Zr   0.37958   0.12592   0.84090   1.000
    Zr15    Zr   0.87941   0.12589   0.84090   1.000
    Zr16    Zr   0.32550   0.41060   0.03350   1.000
    Zr17    Zr   0.82479   0.41054   0.03348   1.000
    Zr18    Zr   0.33841   0.63051   0.72527   1.000
    Zr19    Zr   0.83761   0.63043   0.72500   1.000
    Zr20    Zr   0.38967   0.31937   0.79581   1.000
    Zr21    Zr   0.88951   0.31949   0.79569   1.000
    Zr22    Zr   0.32678   0.34412   0.31825   1.000
    Zr23    Zr   0.82647   0.34405   0.31796   1.000
    Zr24    Zr   0.17517   0.44341   0.96674   1.000
    Zr25    Zr   0.67471   0.44323   0.96702   1.000
    Zr26    Zr   0.16213   0.35527   0.27487   1.000
    Zr27    Zr   0.66143   0.35494   0.27534   1.000
    Zr28    Zr   0.11011   0.11437   0.20487   1.000
    Zr29    Zr   0.61019   0.11415   0.20492   1.000
    Zr30    Zr   0.17338   0.66166   0.68262   1.000
    Zr31    Zr   0.67206   0.66119   0.68318   1.000
    Zr32    Zr   0.15797   0.91064   0.03324   1.000
    Zr33    Zr   0.65795   0.91050   0.03347   1.000
    Zr34    Zr   0.29982   0.13039   0.72603   1.000
    Zr35    Zr   0.79968   0.13002   0.72606   1.000
    Zr36    Zr   0.21401   0.81940   0.79547   1.000
    Zr37    Zr   0.71311   0.81904   0.79599   1.000
    Zr38    Zr   0.01382   0.84369   0.31750   1.000
    Zr39    Zr   0.51378   0.84360   0.31766   1.000
    Zr40    Zr   0.34223   0.94395   0.96777   1.000
    Zr41    Zr   0.84220   0.94390   0.96783   1.000
    Zr42    Zr   0.20008   0.85574   0.27490   1.000
    Zr43    Zr   0.70008   0.85549   0.27506   1.000
    Zr44    Zr   0.28604   0.61467   0.20508   1.000
    Zr45    Zr   0.78590   0.61450   0.20509   1.000
    Zr46    Zr   0.48589   0.16126   0.68330   1.000
    Zr47    Zr   0.98573   0.16102   0.68344   1.000
    Zr48    Zr   0.31886   0.48280   0.04426   1.000
    Zr49    Zr   0.81755   0.48255   0.04446   1.000
    Zr50    Zr   0.32026   0.33176   0.09222   1.000
    Zr51    Zr   0.81996   0.33177   0.09208   1.000
    Zr52    Zr   0.37032   0.66644   0.64587   1.000
    Zr53    Zr   0.86989   0.66676   0.64601   1.000
    Zr54    Zr   0.29534   0.67202   0.75563   1.000
    Zr55    Zr   0.79397   0.67128   0.75569   1.000
    Zr56    Zr   0.41353   0.34672   0.71307   1.000
    Zr57    Zr   0.91346   0.34681   0.71290   1.000
    Zr58    Zr   0.37833   0.23700   0.85600   1.000
    Zr59    Zr   0.87809   0.23710   0.85590   1.000
    Zr60    Zr   0.27600   0.34687   0.37192   1.000
    Zr61    Zr   0.77587   0.34705   0.37178   1.000
    Zr62    Zr   0.34690   0.39390   0.23503   1.000
    Zr63    Zr   0.84622   0.39333   0.23470   1.000
    Zr64    Zr   0.18241   0.52641   0.95581   1.000
    Zr65    Zr   0.68161   0.52621   0.95622   1.000
    Zr66    Zr   0.18002   0.42329   0.90812   1.000
    Zr67    Zr   0.67969   0.42321   0.90831   1.000
    Zr68    Zr   0.13003   0.31208   0.35420   1.000
    Zr69    Zr   0.62939   0.31147   0.35469   1.000
    Zr70    Zr   0.20547   0.42693   0.24443   1.000
    Zr71    Zr   0.70458   0.42681   0.24504   1.000
    Zr72    Zr   0.08627   0.05897   0.28762   1.000
    Zr73    Zr   0.58631   0.05875   0.28766   1.000
    Zr74    Zr   0.12138   0.09216   0.14471   1.000
    Zr75    Zr   0.62153   0.09195   0.14475   1.000
    Zr76    Zr   0.22410   0.71835   0.62882   1.000
    Zr77    Zr   0.72288   0.71769   0.62952   1.000
    Zr78    Zr   0.15354   0.62795   0.76585   1.000
    Zr79    Zr   0.65187   0.62782   0.76640   1.000
    Zr80    Zr   0.15886   0.98276   0.04419   1.000
    Zr81    Zr   0.65888   0.98265   0.04434   1.000
    Zr82    Zr   0.13371   0.83182   0.09172   1.000
    Zr83    Zr   0.63369   0.83170   0.09202   1.000
    Zr84    Zr   0.30726   0.16663   0.64656   1.000
    Zr85    Zr   0.80706   0.16617   0.64662   1.000
    Zr86    Zr   0.32800   0.17146   0.75667   1.000
    Zr87    Zr   0.82792   0.17117   0.75659   1.000
    Zr88    Zr   0.23161   0.84700   0.71266   1.000
    Zr89    Zr   0.72988   0.84657   0.71324   1.000
    Zr90    Zr   0.19548   0.73694   0.85551   1.000
    Zr91    Zr   0.69506   0.73654   0.85607   1.000
    Zr92    Zr   0.03828   0.84637   0.37103   1.000
    Zr93    Zr   0.53827   0.84619   0.37120   1.000
    Zr94    Zr   0.03482   0.89340   0.23424   1.000
    Zr95    Zr   0.53479   0.89333   0.23440   1.000
    Zr96    Zr   0.34100   0.02703   0.95677   1.000
    Zr97    Zr   0.84096   0.02697   0.95685   1.000
    Zr98    Zr   0.36692   0.92374   0.90936   1.000
    Zr99    Zr   0.86685   0.92372   0.90939   1.000
    Zr100   Zr   0.19273   0.81246   0.35434   1.000
    Zr101   Zr   0.69269   0.81213   0.35450   1.000
    Zr102   Zr   0.17184   0.92735   0.24434   1.000
    Zr103   Zr   0.67185   0.92711   0.24453   1.000
    Zr104   Zr   0.26838   0.55916   0.28782   1.000
    Zr105   Zr   0.76834   0.55909   0.28780   1.000
    Zr106   Zr   0.30482   0.59262   0.14483   1.000
    Zr107   Zr   0.80439   0.59227   0.14496   1.000
    Zr108   Zr   0.46140   0.21732   0.62982   1.000
    Zr109   Zr   0.96131   0.21718   0.62984   1.000
    Zr110   Zr   0.46505   0.12802   0.76659   1.000
    Zr111   Zr   0.96484   0.12776   0.76665   1.000
    O112    O    0.15842   0.94670   0.03871   1.000
    O113    O    0.14584   0.87123   0.06248   1.000
    O114    O    0.65842   0.94657   0.03890   1.000
    O115    O    0.64582   0.87110   0.06274   1.000
    O116    O    0.82117   0.44655   0.03897   1.000
    O117    O    0.82237   0.37115   0.06278   1.000
    O118    O    0.32218   0.44670   0.03888   1.000
    O119    O    0.32288   0.37118   0.06286   1.000
    O120    O    0.13959   0.97428   0.10212   1.000
    O121    O    0.30875   0.47458   0.10216   1.000
    O122    O    0.63960   0.97410   0.10227   1.000
    O123    O    0.80740   0.47418   0.10245   1.000
    O124    O    0.12085   0.02898   0.15239   1.000
    O125    O    0.11574   0.10327   0.17479   1.000
    O126    O    0.62093   0.02875   0.15247   1.000
    O127    O    0.61586   0.10305   0.17483   1.000
    O128    O    0.30173   0.52949   0.15245   1.000
    O129    O    0.29543   0.60365   0.17496   1.000
    O130    O    0.80082   0.52904   0.15270   1.000
    O131    O    0.79515   0.60339   0.17503   1.000
    O132    O    0.32277   0.43013   0.19755   1.000
    O133    O    0.25206   0.44665   0.20225   1.000
    O134    O    0.07757   0.92960   0.19715   1.000
    O135    O    0.14608   0.94658   0.20220   1.000
    O136    O    0.57756   0.92944   0.19730   1.000
    O137    O    0.64609   0.94633   0.20237   1.000
    O138    O    0.82173   0.42957   0.19757   1.000
    O139    O    0.75091   0.44631   0.20274   1.000
    O140    O    0.09819   0.08667   0.24625   1.000
    O141    O    0.59825   0.08645   0.24629   1.000
    O142    O    0.27721   0.58691   0.24645   1.000
    O143    O    0.77712   0.58680   0.24645   1.000
    O144    O    0.02432   0.86855   0.27587   1.000
    O145    O    0.52429   0.86846   0.27603   1.000
    O146    O    0.83634   0.36869   0.27633   1.000
    O147    O    0.33684   0.36901   0.27664   1.000
    O148    O    0.18596   0.89154   0.25962   1.000
    O149    O    0.18380   0.39110   0.25965   1.000
    O150    O    0.68596   0.89130   0.25980   1.000
    O151    O    0.68300   0.39088   0.26019   1.000
    O152    O    0.14608   0.33367   0.31454   1.000
    O153    O    0.19640   0.83410   0.31462   1.000
    O154    O    0.69638   0.83381   0.31478   1.000
    O155    O    0.64541   0.33320   0.31501   1.000
    O156    O    0.10033   0.99748   0.32031   1.000
    O157    O    0.60035   0.99723   0.32043   1.000
    O158    O    0.73839   0.49737   0.32068   1.000
    O159    O    0.23843   0.49734   0.32063   1.000
    O160    O    0.02605   0.84503   0.34426   1.000
    O161    O    0.52602   0.84489   0.34443   1.000
    O162    O    0.80117   0.34555   0.34487   1.000
    O163    O    0.30139   0.34549   0.34508   1.000
    O164    O    0.07634   0.89117   0.36201   1.000
    O165    O    0.57633   0.89095   0.36219   1.000
    O166    O    0.24224   0.39119   0.36268   1.000
    O167    O    0.74215   0.39135   0.36267   1.000
    O168    O    0.25778   0.75383   0.63795   1.000
    O169    O    0.19874   0.69000   0.65572   1.000
    O170    O    0.75631   0.75329   0.63864   1.000
    O171    O    0.69747   0.68944   0.65635   1.000
    O172    O    0.42342   0.25307   0.63881   1.000
    O173    O    0.47364   0.18929   0.65656   1.000
    O174    O    0.92336   0.25293   0.63888   1.000
    O175    O    0.97352   0.18910   0.65664   1.000
    O176    O    0.35436   0.64847   0.68557   1.000
    O177    O    0.85375   0.64860   0.68551   1.000
    O178    O    0.30354   0.14851   0.68630   1.000
    O179    O    0.80337   0.14809   0.68634   1.000
    O180    O    0.26154   0.81816   0.67987   1.000
    O181    O    0.75981   0.81773   0.68050   1.000
    O182    O    0.39949   0.31777   0.68044   1.000
    O183    O    0.89944   0.31774   0.68041   1.000
    O184    O    0.16346   0.64480   0.72424   1.000
    O185    O    0.66197   0.64450   0.72479   1.000
    O186    O    0.47547   0.14464   0.72494   1.000
    O187    O    0.97528   0.14439   0.72505   1.000
    O188    O    0.22281   0.83320   0.75407   1.000
    O189    O    0.90149   0.33315   0.75430   1.000
    O190    O    0.40160   0.33304   0.75444   1.000
    O191    O    0.72150   0.83281   0.75461   1.000
    O192    O    0.81579   0.65085   0.74035   1.000
    O193    O    0.31687   0.65126   0.74045   1.000
    O194    O    0.31391   0.15093   0.74135   1.000
    O195    O    0.81380   0.15060   0.74133   1.000
    O196    O    0.24899   0.64902   0.79783   1.000
    O197    O    0.74746   0.64843   0.79814   1.000
    O198    O    0.85366   0.14853   0.79874   1.000
    O199    O    0.35379   0.14869   0.79878   1.000
    O200    O    0.17810   0.62699   0.80294   1.000
    O201    O    0.67641   0.62670   0.80350   1.000
    O202    O    0.42231   0.12697   0.80374   1.000
    O203    O    0.92212   0.12683   0.80378   1.000
    O204    O    0.20475   0.77817   0.82549   1.000
    O205    O    0.88380   0.27830   0.82579   1.000
    O206    O    0.38400   0.27819   0.82591   1.000
    O207    O    0.70409   0.77779   0.82603   1.000
    O208    O    0.19906   0.68148   0.84777   1.000
    O209    O    0.19253   0.57622   0.89792   1.000
    O210    O    0.69801   0.68107   0.84833   1.000
    O211    O    0.69128   0.57590   0.89841   1.000
    O212    O    0.87875   0.18150   0.84840   1.000
    O213    O    0.86018   0.07643   0.89888   1.000
    O214    O    0.37895   0.18146   0.84845   1.000
    O215    O    0.36029   0.07647   0.89884   1.000
    O216    O    0.17760   0.43335   0.93743   1.000
    O217    O    0.67720   0.43322   0.93767   1.000
    O218    O    0.35458   0.93385   0.93857   1.000
    O219    O    0.85453   0.93381   0.93861   1.000
    O220    O    0.17879   0.48491   0.96128   1.000
    O221    O    0.67816   0.48472   0.96162   1.000
    O222    O    0.34162   0.98549   0.96227   1.000
    O223    O    0.84158   0.98543   0.96234   1.000
    O224    O    0.29340   0.73067   0.70135   1.000
    O225    O    0.79186   0.73008   0.70173   1.000
    O226    O    0.20697   0.43122   0.29894   1.000
    O227    O    0.70650   0.43123   0.29929   1.000
    O228    O    0.35672   0.23014   0.70223   1.000
    O229    O    0.85666   0.22993   0.70226   1.000
    O230    O    0.14312   0.93166   0.29867   1.000
    O231    O    0.64312   0.93142   0.29886   1.000
    N232    N    0.86986   0.53884   0.45187   1.000
    O233    O    0.92702   0.67432   0.39386   1.000
    O234    O    0.88589   0.43473   0.51497   1.000
    O235    O    0.85987   0.43501   0.54503   1.000
    N236    N    0.40421   0.03869   0.45175   1.000
    O237    O    0.37575   0.17442   0.39413   1.000
    O238    O    0.35691   0.93490   0.51455   1.000
    O239    O    0.36803   0.93515   0.54465   1.000
    N240    N    0.09586   0.49034   0.54869   1.000
    O241    O    0.12434   0.56817   0.60651   1.000
    O242    O    0.14308   0.44899   0.48596   1.000
    O243    O    0.13203   0.47937   0.45578   1.000
    N244    N    0.27776   0.80542   0.14925   1.000
    O245    O    0.24917   0.82431   0.19589   1.000
    O246    O    0.30171   0.85665   0.08204   1.000
    O247    O    0.28130   0.73477   0.17001   1.000
    N248    N    0.62964   0.99035   0.54916   1.000
    O249    O    0.63973   0.97910   0.45605   1.000
    O250    O    0.61372   0.94910   0.48608   1.000
    O251    O    0.57254   0.06800   0.60709   1.000
    N252    N    0.90338   0.03825   0.45213   1.000
    O253    O    0.87519   0.17418   0.39420   1.000
    O254    O    0.86680   0.93474   0.54518   1.000
    O255    O    0.85576   0.93447   0.51502   1.000
    N256    N    0.59543   0.49015   0.54869   1.000
    O257    O    0.62354   0.56781   0.60674   1.000
    O258    O    0.63177   0.47932   0.45579   1.000
    O259    O    0.64282   0.44897   0.48598   1.000
    N260    N    0.36982   0.53892   0.45192   1.000
    O261    O    0.42698   0.67433   0.39395   1.000
    O262    O    0.38588   0.43484   0.51497   1.000
    O263    O    0.35988   0.43513   0.54501   1.000
    N264    N    0.85254   0.45415   0.85141   1.000
    O265    O    0.84727   0.51980   0.80452   1.000
    O266    O    0.84237   0.43792   0.91884   1.000
    O267    O    0.86677   0.40438   0.83069   1.000
    N268    N    0.64701   0.30469   0.14906   1.000
    O269    O    0.65719   0.35591   0.08164   1.000
    O270    O    0.63286   0.23413   0.16981   1.000
    O271    O    0.65211   0.32356   0.19594   1.000
    N272    N    0.35299   0.45410   0.85149   1.000
    O273    O    0.36708   0.40429   0.83077   1.000
    O274    O    0.34291   0.43791   0.91890   1.000
    O275    O    0.34783   0.51980   0.80464   1.000
    N276    N    0.12957   0.99027   0.54885   1.000
    O277    O    0.13971   0.97913   0.45582   1.000
    O278    O    0.11368   0.94918   0.48584   1.000
    O279    O    0.07243   0.06782   0.60698   1.000
    N280    N    0.72195   0.95378   0.85186   1.000
    O281    O    0.69819   0.93767   0.91912   1.000
    O282    O    0.71821   0.90396   0.83108   1.000
    O283    O    0.75056   0.01941   0.80517   1.000
    N284    N    0.14726   0.30489   0.14888   1.000
    O285    O    0.13296   0.23435   0.16970   1.000
    O286    O    0.15251   0.32379   0.19566   1.000
    O287    O    0.15750   0.35610   0.08142   1.000
    N288    N    0.22220   0.95409   0.85160   1.000
    O289    O    0.19835   0.93792   0.91886   1.000
    O290    O    0.21868   0.90429   0.83074   1.000
    O291    O    0.25076   0.01975   0.80500   1.000
    N292    N    0.77777   0.80529   0.14929   1.000
    O293    O    0.80170   0.85655   0.08209   1.000
    O294    O    0.74918   0.82414   0.19596   1.000
    O295    O    0.78126   0.73463   0.17003   1.000
loop_
    _geom_bond_atom_site_label_1
    _geom_bond_atom_site_label_2
    _geom_bond_distance
    _geom_bond_site_symmetry_2
    _ccdc_geom_bond_type
    Zr32   O112      0.65679      .   S
    Zr80   O112      0.65679      .   S
    Zr32   O113      0.61912      .   S
    Zr82   O113      0.61912      .   S
    Zr33   O114      0.65672      .   S
    Zr81   O114      0.65672      .   S
    Zr33   O115      0.61916      .   S
    Zr83   O115      0.61916      .   S
    Zr17   O116      0.65690      .   S
    Zr49   O116      0.65690      .   S
    Zr17   O117      0.61903      .   S
    Zr51   O117      0.61903      .   S
    Zr16   O118      0.65689      .   S
    Zr48   O118      0.65689      .   S
    Zr16   O119      0.61900      .   S
    Zr50   O119      0.61900      .   S
    Zr80   O120      0.95478      .   S
    Zr10   O120      0.95478      .   S
    Zr48   O121      0.95390      .   S
    Zr2    O121      0.95390      .   S
    Zr81   O122      0.95424      .   S
    Zr11   O122      0.95424      .   S
    Zr49   O123      0.95436      .   S
    Zr3    O123      0.95436      .   S
    Zr74   O124      1.00181      .   S
    Zr10   O124      1.00181  1_565   S
    Zr74   O125      0.63591      .   S
    Zr28   O125      0.63591      .   S
    Zr75   O126      1.00187      .   S
    Zr11   O126      1.00187  1_565   S
    Zr75   O127      0.63583      .   S
    Zr29   O127      0.63583      .   S
    Zr106  O128      1.00122      .   S
    Zr2    O128      1.00122      .   S
    Zr106  O129      0.63596      .   S
    Zr44   O129      0.63596      .   S
    Zr107  O130      1.00245      .   S
    Zr3    O130      1.00245      .   S
    Zr107  O131      0.63584      .   S
    Zr45   O131      0.63584      .   S
    Zr2    O132      0.98511      .   S
    Zr62   O132      0.98511      .   S
    Zr2    O133      1.03338      .   S
    Zr70   O133      1.03338      .   S
    Zr10   O134      0.98509      .   S
    Zr94   O134      0.98509      .   S
    Zr10   O135      1.03357      .   S
    Zr102  O135      1.03357      .   S
    Zr11   O136      0.98497      .   S
    Zr95   O136      0.98497      .   S
    Zr11   O137      1.03392      .   S
    Zr103  O137      1.03392      .   S
    Zr3    O138      0.98754      .   S
    Zr63   O138      0.98754      .   S
    Zr3    O139      1.02971      .   S
    Zr71   O139      1.02971      .   S
    Zr28   O140      0.64305      .   S
    Zr72   O140      0.64305      .   S
    Zr29   O141      0.64301      .   S
    Zr73   O141      0.64301      .   S
    Zr44   O142      0.64281      .   S
    Zr104  O142      0.64281      .   S
    Zr45   O143      0.64251      .   S
    Zr105  O143      0.64251      .   S
    Zr94   O144      0.63862      .   S
    Zr38   O144      0.63862      .   S
    Zr95   O145      0.63864      .   S
    Zr39   O145      0.63864      .   S
    Zr63   O146      0.63831      .   S
    Zr23   O146      0.63831      .   S
    Zr62   O147      0.63840      .   S
    Zr22   O147      0.63840      .   S
    Zr102  O148      0.66137      .   S
    Zr42   O148      0.66137      .   S
    Zr70   O149      0.66137      .   S
    Zr26   O149      0.66137      .   S
    Zr103  O150      0.66137      .   S
    Zr43   O150      0.66137      .   S
    Zr71   O151      0.66161      .   S
    Zr27   O151      0.66161      .   S
    Zr26   O152      0.62162      .   S
    Zr68   O152      0.62162      .   S
    Zr42   O153      0.62199      .   S
    Zr100  O153      0.62199      .   S
    Zr43   O154      0.62194      .   S
    Zr101  O154      0.62194      .   S
    Zr27   O155      0.62173      .   S
    Zr69   O155      0.62173      .   S
    Zr72   O156      1.03288  1_545   S
    Zr12   O156      1.03288      .   S
    Zr73   O157      1.03312  1_545   S
    Zr13   O157      1.03312      .   S
    Zr105  O158      1.03174      .   S
    Zr5    O158      1.03174      .   S
    Zr104  O159      1.03304      .   S
    Zr4    O159      1.03304      .   S
    Zr38   O160      0.63637      .   S
    Zr92   O160      0.63637      .   S
    Zr39   O161      0.63634      .   S
    Zr93   O161      0.63634      .   S
    Zr23   O162      0.63664      .   S
    Zr61   O162      0.63664      .   S
    Zr22   O163      0.63644      .   S
    Zr60   O163      0.63644      .   S
    Zr12   O164      1.05611      .   S
    Zr92   O164      1.05611      .   S
    Zr13   O165      1.05590      .   S
    Zr93   O165      1.05590      .   S
    Zr4    O166      1.05498      .   S
    Zr60   O166      1.05498      .   S
    Zr5    O167      1.05388      .   S
    Zr61   O167      1.05388      .   S
    Zr76   O168      1.05570      .   S
    Zr0    O168      1.05570      .   S
    Zr76   O169      0.63659      .   S
    Zr30   O169      0.63659      .   S
    Zr77   O170      1.05246      .   S
    Zr1    O170      1.05246      .   S
    Zr77   O171      0.63655      .   S
    Zr31   O171      0.63655      .   S
    Zr108  O172      1.05528      .   S
    Zr8    O172      1.05528      .   S
    Zr108  O173      0.63598      .   S
    Zr46   O173      0.63598      .   S
    Zr109  O174      1.05497      .   S
    Zr9    O174      1.05497      .   S
    Zr109  O175      0.63642      .   S
    Zr47   O175      0.63642      .   S
    Zr52   O176      0.62178      .   S
    Zr18   O176      0.62178      .   S
    Zr53   O177      0.61968      .   S
    Zr19   O177      0.61968      .   S
    Zr84   O178      0.62200      .   S
    Zr34   O178      0.62200      .   S
    Zr85   O179      0.62194      .   S
    Zr35   O179      0.62194      .   S
    Zr0    O180      1.03156      .   S
    Zr88   O180      1.03156      .   S
    Zr1    O181      1.03096      .   S
    Zr89   O181      1.03096      .   S
    Zr8    O182      1.03311      .   S
    Zr56   O182      1.03311      .   S
    Zr9    O183      1.03202      .   S
    Zr57   O183      1.03202      .   S
    Zr30   O184      0.63834      .   S
    Zr78   O184      0.63834      .   S
    Zr31   O185      0.63853      .   S
    Zr79   O185      0.63853      .   S
    Zr46   O186      0.63920      .   S
    Zr110  O186      0.63920      .   S
    Zr47   O187      0.63854      .   S
    Zr111  O187      0.63854      .   S
    Zr88   O188      0.64297      .   S
    Zr36   O188      0.64297      .   S
    Zr57   O189      0.64363      .   S
    Zr21   O189      0.64363      .   S
    Zr56   O190      0.64311      .   S
    Zr20   O190      0.64311      .   S
    Zr89   O191      0.64309      .   S
    Zr37   O191      0.64309      .   S
    Zr19   O192      0.66280      .   S
    Zr55   O192      0.66280      .   S
    Zr18   O193      0.66161      .   S
    Zr54   O193      0.66161      .   S
    Zr34   O194      0.66136      .   S
    Zr86   O194      0.66136      .   S
    Zr35   O195      0.66138      .   S
    Zr87   O195      0.66138      .   S
    Zr54   O196      1.02941      .   S
    Zr6    O196      1.02941      .   S
    Zr55   O197      1.03347      .   S
    Zr7    O197      1.03347      .   S
    Zr87   O198      1.03335      .   S
    Zr15   O198      1.03335      .   S
    Zr86   O199      1.03363      .   S
    Zr14   O199      1.03363      .   S
    Zr78   O200      0.98738      .   S
    Zr6    O200      0.98738      .   S
    Zr79   O201      0.98654      .   S
    Zr7    O201      0.98654      .   S
    Zr110  O202      0.98514      .   S
    Zr14   O202      0.98514      .   S
    Zr111  O203      0.98520      .   S
    Zr15   O203      0.98520      .   S
    Zr36   O204      0.63586      .   S
    Zr90   O204      0.63586      .   S
    Zr21   O205      0.63581      .   S
    Zr59   O205      0.63581      .   S
    Zr20   O206      0.63566      .   S
    Zr58   O206      0.63566      .   S
    Zr37   O207      0.63582      .   S
    Zr91   O207      0.63582      .   S
    Zr6    O208      1.00203      .   S
    Zr90   O208      1.00203      .   S
    Zr6    O209      0.95428      .   S
    Zr64   O209      0.95428      .   S
    Zr7    O210      1.00198      .   S
    Zr91   O210      1.00198      .   S
    Zr7    O211      0.95373      .   S
    Zr65   O211      0.95373      .   S
    Zr15   O212      1.00168      .   S
    Zr59   O212      1.00168      .   S
    Zr15   O213      0.95470      .   S
    Zr97   O213      0.95470      .   S
    Zr14   O214      1.00119      .   S
    Zr58   O214      1.00119      .   S
    Zr14   O215      0.95435      .   S
    Zr96   O215      0.95435      .   S
    Zr66   O216      0.61903      .   S
    Zr24   O216      0.61903      .   S
    Zr67   O217      0.61902      .   S
    Zr25   O217      0.61902      .   S
    Zr98   O218      0.61911      .   S
    Zr40   O218      0.61911      .   S
    Zr99   O219      0.61911      .   S
    Zr41   O219      0.61911      .   S
    Zr64   O220      0.65693      .   S
    Zr24   O220      0.65693      .   S
    Zr65   O221      0.65688      .   S
    Zr25   O221      0.65688      .   S
    Zr96   O222      0.65699  1_545   S
    Zr40   O222      0.65699      .   S
    Zr97   O223      0.65701  1_545   S
    Zr41   O223      0.65701      .   S
    Zr54   O224      1.04030      .   S
    Zr0    O224      1.04030      .   S
    Zr55   O225      1.03995      .   S
    Zr1    O225      1.03995      .   S
    Zr70   O226      1.04069      .   S
    Zr4    O226      1.04069      .   S
    Zr71   O227      1.04029      .   S
    Zr5    O227      1.04029      .   S
    Zr86   O228      1.04076      .   S
    Zr8    O228      1.04076      .   S
    Zr87   O229      1.04098      .   S
    Zr9    O229      1.04098      .   S
    Zr102  O230      1.04047      .   S
    Zr12   O230      1.04047      .   S
    Zr103  O231      1.04048      .   S
    Zr13   O231      1.04048      .   S
    N232   O233      2.20876      .   S
    Zr38   O233      2.91347  1_455   S
    N232   O234      1.70466      .   S
    Zr9    O234      2.53287      .   S
    N232   O235      1.73908      .   S
    Zr9    O235      2.50834      .   S
    N236   O237      2.21294      .   S
    Zr22   O237      2.91764      .   S
    N236   O238      1.70040  1_545   S
    Zr0    O238      2.52644      .   S
    N236   O239      1.73468  1_545   S
    Zr0    O239      2.50234      .   S
    N240   O241      2.21154      .   S
    Zr30   O241      2.91639      .   S
    N240   O242      1.70464      .   S
    Zr4    O242      2.53155      .   S
    N240   O243      1.73883      .   S
    Zr4    O243      2.50723      .   S
    N244   O245      1.07380      .   S
    Zr42   O245      1.81815      .   S
    N244   O246      1.07929      .   S
    Zr40   O246      1.83527  1_556   S
    N244   O247      1.07612      .   S
    Zr44   O247      1.82519      .   S
    N248   O249      1.74370      .   S
    Zr13   O249      2.50462      .   S
    N248   O250      1.70579      .   S
    Zr13   O250      2.53331      .   S
    N248   O251      2.21190  1_565   S
    Zr46   O251      2.91645      .   S
    N252   O253      2.21358      .   S
    Zr23   O253      2.91771      .   S
    N252   O254      1.73699  1_545   S
    Zr1    O254      2.50794      .   S
    N252   O255      1.70333  1_545   S
    Zr1    O255      2.53155      .   S
    N256   O257      2.20923      .   S
    Zr31   O257      2.91407      .   S
    N256   O258      1.73804      .   S
    Zr5    O258      2.50615      .   S
    N256   O259      1.70395      .   S
    Zr5    O259      2.53014      .   S
    N260   O261      2.20796      .   S
    Zr39   O261      2.91231      .   S
    N260   O262      1.70442      .   S
    Zr8    O262      2.53170      .   S
    N260   O263      1.73836      .   S
    Zr8    O263      2.50771      .   S
    N264   O265      1.07438      .   S
    Zr19   O265      1.81981      .   S
    N264   O266      1.07935      .   S
    Zr17   O266      1.83539  1_554   S
    N264   O267      1.07599      .   S
    Zr21   O267      1.82504      .   S
    N268   O269      1.07919      .   S
    Zr25   O269      1.83520  1_556   S
    N268   O270      1.07592      .   S
    Zr29   O270      1.82475      .   S
    N268   O271      1.07391      .   S
    Zr27   O271      1.81805      .   S
    N272   O273      1.07599      .   S
    Zr20   O273      1.82448      .   S
    N272   O274      1.07945      .   S
    Zr16   O274      1.83554  1_554   S
    N272   O275      1.07370      .   S
    Zr18   O275      1.81789      .   S
    N276   O277      1.74100      .   S
    Zr12   O277      2.50138      .   S
    N276   O278      1.70252      .   S
    Zr12   O278      2.53056      .   S
    N276   O279      2.21326  1_565   S
    Zr47   O279      2.91847  1_655   S
    N280   O281      1.07924      .   S
    Zr33   O281      1.83528  1_554   S
    N280   O282      1.07607      .   S
    Zr37   O282      1.82502      .   S
    N280   O283      1.07425  1_565   S
    Zr35   O283      1.81893      .   S
    N284   O285      1.07597      .   S
    Zr28   O285      1.82508      .   S
    N284   O286      1.07384      .   S
    Zr26   O286      1.81796      .   S
    N284   O287      1.07942      .   S
    Zr24   O287      1.83552  1_556   S
    N288   O289      1.07927      .   S
    Zr32   O289      1.83569  1_554   S
    N288   O290      1.07610      .   S
    Zr36   O290      1.82516      .   S
    N288   O291      1.07394  1_565   S
    Zr34   O291      1.81836      .   S
    N292   O293      1.07926      .   S
    Zr41   O293      1.83533  1_556   S
    N292   O294      1.07379      .   S
    Zr43   O294      1.81846      .   S
    N292   O295      1.07617      .   S
    Zr45   O295      1.82526      .   S
