# CIF file generated by openbabel 2.4.90, see http://openbabel.sf.net
data_I
_chemical_name_common ''
_cell_length_a 18.39
_cell_length_b 18.388
_cell_length_c 18.393
_cell_angle_alpha 60.437
_cell_angle_beta 60.428
_cell_angle_gamma 60.436
_space_group_name_H-M_alt 'P 1'
_space_group_name_Hall 'P 1'
loop_
    _symmetry_equiv_pos_as_xyz
    x,y,z
loop_
    _atom_site_label
    _atom_site_type_symbol
    _atom_site_fract_x
    _atom_site_fract_y
    _atom_site_fract_z
    _atom_site_occupancy
    Zr0     Zr   0.38017   0.20697   0.20703   1.000
    Zr1     Zr   0.20697   0.38015   0.20696   1.000
    Zr2     Zr   0.20704   0.20697   0.38011   1.000
    Zr3     Zr   0.20596   0.20605   0.20601   1.000
    Zr4     Zr   0.79302   0.61985   0.79302   1.000
    Zr5     Zr   0.61982   0.79303   0.79290   1.000
    Zr6     Zr   0.79295   0.79303   0.61987   1.000
    Zr7     Zr   0.79403   0.79395   0.79397   1.000
    N8      N    1.00000   0.50000   0.49998   1.000
    O9      O    0.08525   0.45218   0.37809   1.000
    O10     O    0.08528   0.37810   0.45215   1.000
    O11     O    0.91471   0.62189   0.54783   1.000
    O12     O    0.91475   0.54782   0.62189   1.000
    N13     N    0.99999   0.50000   0.99999   1.000
    O14     O    0.91537   0.62231   0.91530   1.000
    O15     O    0.08510   0.45200   0.08511   1.000
    O16     O    0.08462   0.37769   0.08468   1.000
    O17     O    0.91489   0.54800   0.91487   1.000
    N18     N    0.50000   1.00000   0.99999   1.000
    O19     O    0.45202   0.08510   0.08514   1.000
    O20     O    0.37768   0.08468   0.08467   1.000
    O21     O    0.62231   0.91532   0.91531   1.000
    O22     O    0.54798   0.91489   0.91483   1.000
    N23     N    0.50000   0.00000   0.49999   1.000
    O24     O    0.45219   0.08528   0.37810   1.000
    O25     O    0.54780   0.91472   0.62185   1.000
    O26     O    0.37813   0.08522   0.45215   1.000
    O27     O    0.62187   0.91478   0.54782   1.000
    N28     N    0.49999   0.50000   0.99999   1.000
    O29     O    0.37810   0.45217   0.08521   1.000
    O30     O    0.45218   0.37810   0.08530   1.000
    O31     O    0.54781   0.62190   0.91467   1.000
    O32     O    0.62189   0.54783   0.91477   1.000
    N33     N    0.99999   0.00000   0.49998   1.000
    O34     O    0.91486   0.91488   0.54801   1.000
    O35     O    0.91538   0.91529   0.62230   1.000
    O36     O    0.08461   0.08471   0.37767   1.000
    O37     O    0.08513   0.08512   0.45196   1.000
    N38     N    0.24989   0.24988   0.24987   1.000
    O39     O    0.23916   0.28245   0.23914   1.000
    O40     O    0.28246   0.23915   0.23916   1.000
    O41     O    0.23891   0.23892   0.23890   1.000
    O42     O    0.23918   0.23915   0.28243   1.000
    N43     N    0.75010   0.75012   0.75011   1.000
    O44     O    0.76081   0.76085   0.71755   1.000
    O45     O    0.71753   0.76085   0.76081   1.000
    O46     O    0.76108   0.76108   0.76107   1.000
    O47     O    0.76083   0.71755   0.76084   1.000
loop_
    _geom_bond_atom_site_label_1
    _geom_bond_atom_site_label_2
    _geom_bond_distance
    _geom_bond_site_symmetry_2
    _ccdc_geom_bond_type
    N8     O9        2.31803  1_655   S
    Zr1    O9        3.30239      .   S
    N8     O10       2.31794  1_655   S
    Zr2    O10       3.30218      .   S
    N8     O11       2.31801      .   S
    Zr6    O11       3.30227      .   S
    N8     O12       2.31818      .   S
    Zr4    O12       3.30247      .   S
    N13    O14       2.32130      .   S
    Zr7    O14       3.30695      .   S
    N13    O15       2.31764  1_656   S
    Zr1    O15       3.30235      .   S
    N13    O16       2.32132  1_656   S
    Zr3    O16       3.30700      .   S
    N13    O17       2.31767      .   S
    Zr4    O17       3.30227      .   S
    N18    O19       2.31780  1_566   S
    Zr0    O19       3.30235      .   S
    N18    O20       2.32136  1_566   S
    Zr3    O20       3.30730      .   S
    N18    O21       2.32137      .   S
    Zr7    O21       3.30727      .   S
    N18    O22       2.31798      .   S
    Zr5    O22       3.30289      .   S
    N23    O24       2.31814      .   S
    Zr0    O24       3.30198      .   S
    N23    O25       2.31782  1_545   S
    Zr5    O25       3.30166      .   S
    N23    O26       2.31792      .   S
    Zr2    O26       3.30215      .   S
    N23    O27       2.31793  1_545   S
    Zr6    O27       3.30220      .   S
    N28    O29       2.31781  1_556   S
    Zr1    O29       3.30202      .   S
    N28    O30       2.31776  1_556   S
    Zr0    O30       3.30184      .   S
    N28    O31       2.31777      .   S
    Zr5    O31       3.30186      .   S
    N28    O32       2.31780      .   S
    Zr4    O32       3.30202      .   S
    N33    O34       2.31742  1_545   S
    Zr6    O34       3.30192      .   S
    N33    O35       2.32112  1_545   S
    Zr7    O35       3.30673      .   S
    N33    O36       2.32109  1_655   S
    Zr3    O36       3.30670      .   S
    N33    O37       2.31744  1_655   S
    Zr2    O37       3.30195      .   S
    N38    O39       0.49166      .   S
    Zr1    O39       1.47497      .   S
    N38    O40       0.49169      .   S
    Zr0    O40       1.47507      .   S
    N38    O41       0.49248      .   S
    Zr3    O41       1.47744      .   S
    N38    O42       0.49163      .   S
    Zr2    O42       1.47489      .   S
    N43    O44       0.49163      .   S
    Zr6    O44       1.47489      .   S
    N43    O45       0.49169      .   S
    Zr5    O45       1.47506      .   S
    N43    O46       0.49249      .   S
    Zr7    O46       1.47746      .   S
    N43    O47       0.49166      .   S
    Zr4    O47       1.47497      .   S
