# CIF file generated by openbabel 2.4.90, see http://openbabel.sf.net
data_I
_chemical_name_common ''
_cell_length_a 20.297
_cell_length_b 22.807
_cell_length_c 18.089
_cell_angle_alpha 99.858
_cell_angle_beta 89.934
_cell_angle_gamma 116.458
_space_group_name_H-M_alt 'P 1'
_space_group_name_Hall 'P 1'
loop_
    _symmetry_equiv_pos_as_xyz
    x,y,z
loop_
    _atom_site_label
    _atom_site_type_symbol
    _atom_site_fract_x
    _atom_site_fract_y
    _atom_site_fract_z
    _atom_site_occupancy
    C0      C    0.13044   0.10923   0.95610   1.000
    C1      C    0.13044   0.60923   0.95615   1.000
    C2      C    0.63043   0.10922   0.95616   1.000
    C3      C    0.47884   0.10924   0.45610   1.000
    C4      C    0.02117   0.39078   0.54388   1.000
    C5      C    0.02117   0.89078   0.54387   1.000
    C6      C    0.52117   0.39078   0.54380   1.000
    C7      C    0.52117   0.89078   0.54380   1.000
    C8      C    0.17678   0.29366   0.85803   1.000
    C9      C    0.17679   0.79367   0.85803   1.000
    C10     C    0.67678   0.29366   0.85803   1.000
    C11     C    0.67678   0.79367   0.85803   1.000
    C12     C    0.31417   0.45329   0.55396   1.000
    C13     C    0.31417   0.95329   0.55390   1.000
    C14     C    0.81417   0.45329   0.55396   1.000
    C15     C    0.81417   0.95329   0.55396   1.000
    O16     O    0.08955   0.90746   0.55631   1.000
    O17     O    0.58954   0.40745   0.55631   1.000
    O18     O    0.58955   0.90745   0.55631   1.000
    O19     O    0.42526   0.20102   0.58920   1.000
    O20     O    0.42527   0.70103   0.58920   1.000
    O21     O    0.92526   0.20102   0.58920   1.000
    O22     O    0.92526   0.70103   0.58920   1.000
    O23     O    0.32061   0.15771   0.64355   1.000
    C24     C    0.63044   0.60923   0.95616   1.000
    C25     C    0.38293   0.20627   0.64194   1.000
    C26     C    0.38293   0.70628   0.64194   1.000
    C27     C    0.88292   0.20627   0.64194   1.000
    C28     C    0.88293   0.70628   0.64193   1.000
    C29     C    0.36091   0.04671   0.94596   1.000
    C30     C    0.36092   0.54671   0.94596   1.000
    C31     C    0.86091   0.04671   0.94590   1.000
    C32     C    0.86091   0.54671   0.94596   1.000
    C33     C    0.47885   0.60924   0.45610   1.000
    C34     C    0.97884   0.10924   0.45610   1.000
    C35     C    0.97884   0.60924   0.45610   1.000
    C36     C    0.32324   0.20636   0.14195   1.000
    C37     C    0.32324   0.70636   0.14194   1.000
    C38     C    0.82323   0.20636   0.14195   1.000
    C39     C    0.82324   0.70636   0.14195   1.000
    C40     C    0.18585   0.04674   0.44603   1.000
    C41     C    0.18585   0.54674   0.44603   1.000
    C42     C    0.68585   0.04674   0.44603   1.000
    C43     C    0.68585   0.54674   0.44603   1.000
    C44     C    0.36958   0.39079   0.04382   1.000
    C45     C    0.36959   0.89079   0.04382   1.000
    C46     C    0.86958   0.39079   0.04382   1.000
    C47     C    0.86958   0.89079   0.04382   1.000
    C48     C    0.11709   0.29375   0.35804   1.000
    C49     C    0.11709   0.79375   0.35804   1.000
    C50     C    0.61709   0.29375   0.35800   1.000
    C51     C    0.61709   0.79375   0.35804   1.000
    C52     C    0.13911   0.45332   0.05403   1.000
    C53     C    0.13912   0.95332   0.05403   1.000
    C54     C    0.63911   0.45332   0.05400   1.000
    C55     C    0.63911   0.95332   0.05403   1.000
    O56     O    0.22415   0.29881   0.91082   1.000
    O57     O    0.22415   0.79881   0.91082   1.000
    O58     O    0.72414   0.29881   0.91082   1.000
    O59     O    0.72415   0.79881   0.91082   1.000
    O60     O    0.16334   0.34235   0.85634   1.000
    O61     O    0.16334   0.84236   0.85634   1.000
    O62     O    0.66333   0.34235   0.85634   1.000
    O63     O    0.66334   0.84236   0.85634   1.000
    O64     O    0.27100   0.39384   0.52158   1.000
    O65     O    0.27100   0.89384   0.52158   1.000
    O66     O    0.77099   0.39383   0.52158   1.000
    O67     O    0.77100   0.89384   0.52158   1.000
    O68     O    0.29193   0.49850   0.56619   1.000
    O69     O    0.29193   0.99850   0.56619   1.000
    O70     O    0.79192   0.49849   0.56619   1.000
    O71     O    0.79193   0.99850   0.56619   1.000
    O72     O    0.47186   0.33237   0.51283   1.000
    O73     O    0.47186   0.83237   0.51283   1.000
    O74     O    0.97186   0.33237   0.51283   1.000
    O75     O    0.97186   0.83238   0.51283   1.000
    O76     O    0.08955   0.40745   0.55631   1.000
    O77     O    0.32061   0.65772   0.64355   1.000
    O78     O    0.82060   0.15771   0.64350   1.000
    O79     O    0.82061   0.65771   0.64355   1.000
    O80     O    0.37722   0.10618   0.97832   1.000
    O81     O    0.37722   0.60618   0.97832   1.000
    O82     O    0.87721   0.10617   0.97832   1.000
    O83     O    0.87721   0.60618   0.97832   1.000
    O84     O    0.29344   0.00150   0.93370   1.000
    O85     O    0.29344   0.50150   0.93375   1.000
    O86     O    0.79344   0.00150   0.93375   1.000
    O87     O    0.79344   0.50150   0.93375   1.000
    O88     O    0.13944   0.16759   0.98720   1.000
    O89     O    0.13944   0.66760   0.98720   1.000
    O90     O    0.63943   0.16759   0.98720   1.000
    O91     O    0.63944   0.66760   0.98720   1.000
    O92     O    0.18223   0.09264   0.94373   1.000
    O93     O    0.18223   0.59265   0.94373   1.000
    O94     O    0.68222   0.09264   0.94373   1.000
    O95     O    0.68222   0.59265   0.94373   1.000
    O96     O    0.27586   0.20121   0.08917   1.000
    O97     O    0.27587   0.70122   0.08916   1.000
    O98     O    0.77586   0.20121   0.08917   1.000
    O99     O    0.77587   0.70122   0.08916   1.000
    O100    O    0.33669   0.15767   0.14363   1.000
    O101    O    0.33670   0.65767   0.14363   1.000
    O102    O    0.83669   0.15767   0.14363   1.000
    O103    O    0.83669   0.65768   0.14363   1.000
    O104    O    0.22902   0.10619   0.47840   1.000
    O105    O    0.22902   0.60620   0.47840   1.000
    O106    O    0.72902   0.10619   0.47840   1.000
    O107    O    0.72902   0.60620   0.47840   1.000
    O108    O    0.20809   0.00153   0.43380   1.000
    O109    O    0.20810   0.50153   0.43380   1.000
    O110    O    0.70809   0.00153   0.43380   1.000
    O111    O    0.70809   0.50154   0.43380   1.000
    O112    O    0.02815   0.16765   0.48715   1.000
    O113    O    0.02816   0.66765   0.48714   1.000
    O114    O    0.52815   0.16765   0.48710   1.000
    O115    O    0.52815   0.66765   0.48714   1.000
    O116    O    0.41046   0.09256   0.44367   1.000
    O117    O    0.41047   0.59256   0.44367   1.000
    O118    O    0.91046   0.09256   0.44367   1.000
    O119    O    0.91046   0.59256   0.44367   1.000
    O120    O    0.07476   0.29900   0.41078   1.000
    O121    O    0.07476   0.79900   0.41070   1.000
    O122    O    0.57476   0.29900   0.41078   1.000
    O123    O    0.57476   0.79900   0.41078   1.000
    O124    O    0.17941   0.34231   0.35640   1.000
    O125    O    0.17942   0.84231   0.35642   1.000
    O126    O    0.67941   0.34231   0.35642   1.000
    O127    O    0.67941   0.84231   0.35642   1.000
    O128    O    0.12282   0.39386   0.02166   1.000
    O129    O    0.12282   0.89386   0.02166   1.000
    O130    O    0.62281   0.39386   0.02166   1.000
    O131    O    0.62281   0.89386   0.02166   1.000
    O132    O    0.20658   0.49853   0.06625   1.000
    O133    O    0.20659   0.99854   0.06625   1.000
    O134    O    0.70658   0.49853   0.06625   1.000
    O135    O    0.70658   0.99853   0.06620   1.000
    O136    O    0.36059   0.33242   0.01277   1.000
    O137    O    0.36060   0.83242   0.01277   1.000
    O138    O    0.86059   0.33242   0.01277   1.000
    O139    O    0.86059   0.83242   0.01277   1.000
    O140    O    0.31779   0.40736   0.05625   1.000
    O141    O    0.31780   0.90737   0.05625   1.000
    O142    O    0.81779   0.40736   0.05625   1.000
    O143    O    0.81779   0.90736   0.05625   1.000
loop_
    _geom_bond_atom_site_label_1
    _geom_bond_atom_site_label_2
    _geom_bond_distance
    _geom_bond_site_symmetry_2
    _ccdc_geom_bond_type
    O137   C45       1.28397      .   S
    O138   C46       1.28399      .   S
    O139   C47       1.28399      .   S
    O136   C44       1.28401      .   S
    O128   C52       1.27284      .   S
    O129   C53       1.27286      .   S
    O130   C54       1.27273      .   S
    O131   C55       1.27282      .   S
    C47    O143      1.27392      .   S
    C44    O140      1.27389      .   S
    C45    O141      1.27393      .   S
    C46    O142      1.27390      .   S
    C54    O134      1.28530      .   S
    C52    O132      1.28530      .   S
    C53    O133      1.28528      .   S
    C55    O135      1.28525      .   S
    O99    C39       1.30890      .   S
    O97    C37       1.30878      .   S
    O96    C36       1.30879      .   S
    O98    C38       1.30874      .   S
    C37    O101      1.26116      .   S
    C39    O103      1.26113      .   S
    C36    O100      1.26113      .   S
    C38    O102      1.26117      .   S
    O124   C48       1.26112      .   S
    O126   C50       1.26092      .   S
    O125   C49       1.26108      .   S
    O127   C51       1.26107      .   S
    C50    O122      1.30951      .   S
    C48    O120      1.30894      .   S
    C49    O121      1.30794      .   S
    C51    O123      1.30895      .   S
    O111   C43       1.28539      .   S
    O110   C42       1.28541      .   S
    O109   C41       1.28540      .   S
    O108   C40       1.28542      .   S
    O117   C33       1.27380      .   S
    O118   C34       1.27378      .   S
    O119   C35       1.27378      .   S
    O116   C3        1.27379      .   S
    C40    O104      1.27276      .   S
    C41    O105      1.27278      .   S
    C42    O106      1.27274      .   S
    C43    O107      1.27275      .   S
    C3     O114      1.28373      .   S
    C33    O115      1.28393      .   S
    C34    O112      1.28405  1_655   S
    C35    O113      1.28402  1_655   S
    O74    C4        1.28402  1_655   S
    O72    C6        1.28359      .   S
    O73    C7        1.28359      .   S
    O75    C5        1.28397  1_655   S
    O64    C12       1.27278      .   S
    O66    C14       1.27278      .   S
    O67    C15       1.27278      .   S
    O65    C13       1.27248      .   S
    C6     O17       1.27398      .   S
    C7     O18       1.27397      .   S
    C5     O16       1.27381      .   S
    C4     O76       1.27380      .   S
    C13    O69       1.28543      .   S
    C15    O71       1.28539      .   S
    C14    O70       1.28539      .   S
    C12    O68       1.28539      .   S
    O22    C28       1.30883      .   S
    O19    C25       1.30896      .   S
    O21    C27       1.30899      .   S
    O20    C26       1.30897      .   S
    C28    O79       1.26106      .   S
    C25    O23       1.26106      .   S
    C26    O77       1.26104      .   S
    C27    O78       1.26090      .   S
    O60    C8        1.26113      .   S
    O61    C9        1.26114      .   S
    O62    C10       1.26115      .   S
    O63    C11       1.26115      .   S
    C8     O56       1.30883      .   S
    C9     O57       1.30883      .   S
    C10    O58       1.30882      .   S
    C11    O59       1.30883      .   S
    O84    C29       1.28533      .   S
    O85    C30       1.28530      .   S
    O87    C32       1.28531      .   S
    O86    C31       1.28527      .   S
    O95    C24       1.27391      .   S
    O94    C2        1.27391      .   S
    O93    C1        1.27391      .   S
    O92    C0        1.27379      .   S
    C31    O82       1.27312      .   S
    C32    O83       1.27283      .   S
    C30    O81       1.27285      .   S
    C29    O80       1.27285      .   S
    C0     O88       1.28423      .   S
    C1     O89       1.28397      .   S
    C2     O90       1.28396      .   S
    C24    O91       1.28396      .   S
