# CIF file generated by openbabel 2.4.90, see http://openbabel.sf.net
data_I
_chemical_name_common ''
_cell_length_a 20.297
_cell_length_b 22.807
_cell_length_c 18.089
_cell_angle_alpha 99.858
_cell_angle_beta 89.934
_cell_angle_gamma 116.458
_space_group_name_H-M_alt 'P 1'
_space_group_name_Hall 'P 1'
loop_
    _symmetry_equiv_pos_as_xyz
    x,y,z
loop_
    _atom_site_label
    _atom_site_type_symbol
    _atom_site_fract_x
    _atom_site_fract_y
    _atom_site_fract_z
    _atom_site_occupancy
    Zr0     Zr   0.23007   0.40465   0.97388   1.000
    Zr1     Zr   0.23007   0.90465   0.97388   1.000
    Zr2     Zr   0.73006   0.40465   0.97388   1.000
    Zr3     Zr   0.73007   0.90465   0.97388   1.000
    Zr4     Zr   0.32535   0.09531   0.52608   1.000
    Zr5     Zr   0.32536   0.59532   0.52608   1.000
    Zr6     Zr   0.82535   0.09531   0.52608   1.000
    Zr7     Zr   0.82535   0.59532   0.52608   1.000
    Zr8     Zr   0.26995   0.09537   0.02610   1.000
    Zr9     Zr   0.26996   0.59538   0.02610   1.000
    Zr10    Zr   0.76995   0.09537   0.02610   1.000
    Zr11    Zr   0.76995   0.59537   0.02610   1.000
    Zr12    Zr   0.17466   0.40471   0.47390   1.000
    Zr13    Zr   0.17467   0.90471   0.47390   1.000
    Zr14    Zr   0.67466   0.40471   0.47390   1.000
    Zr15    Zr   0.67466   0.90471   0.47390   1.000
    Zr16    Zr   0.25001   0.25001   0.00000   1.000
    Zr17    Zr   0.25001   0.75001   0.99998   1.000
    Zr18    Zr   0.75001   0.25001   0.00000   1.000
    Zr19    Zr   0.75001   0.75002   0.99999   1.000
    Zr20    Zr   0.00001   0.25001   0.49999   1.000
    Zr21    Zr   0.00000   0.75001   0.49998   1.000
    Zr22    Zr   0.50001   0.25001   0.49999   1.000
    Zr23    Zr   0.50001   0.75001   0.49999   1.000
    N24     N    0.04763   0.58411   0.17587   1.000
    N25     N    0.03638   0.08403   0.67592   1.000
    N26     N    0.53638   0.08403   0.67592   1.000
    N27     N    0.53638   0.58403   0.67592   1.000
    N28     N    0.46364   0.41599   0.32406   1.000
    N29     N    0.46364   0.91599   0.32405   1.000
    N30     N    0.45239   0.91592   0.82408   1.000
    N31     N    0.95144   0.41591   0.82408   1.000
    N32     N    0.96364   0.91599   0.32405   1.000
    N33     N    0.04763   0.08411   0.17590   1.000
    N34     N    0.95144   0.91592   0.82407   1.000
    N35     N    0.03638   0.58403   0.67592   1.000
    N36     N    0.54763   0.58411   0.17590   1.000
    N37     N    0.96364   0.41599   0.32405   1.000
    N38     N    0.54763   0.08411   0.17590   1.000
    N39     N    0.45238   0.41591   0.82408   1.000
    C40     C    0.68809   0.31161   0.87506   1.000
    O41     O    0.64266   0.24245   0.81384   1.000
    O42     O    0.70759   0.33167   0.90871   1.000
    O43     O    0.71258   0.29301   0.91524   1.000
    O44     O    0.69239   0.34255   0.89509   1.000
    C45     C    0.65617   0.44857   0.04730   1.000
    O46     O    0.61711   0.48574   0.08400   1.000
    O47     O    0.69722   0.49776   0.04674   1.000
    O48     O    0.66630   0.42391   0.02254   1.000
    C49     C    0.81193   0.18841   0.12492   1.000
    O50     O    0.85735   0.25757   0.18614   1.000
    O51     O    0.80762   0.15747   0.10489   1.000
    O52     O    0.78743   0.20701   0.08475   1.000
    O53     O    0.79242   0.16835   0.09128   1.000
    C54     C    0.65617   0.94857   0.04730   1.000
    O55     O    0.61712   0.98574   0.08400   1.000
    O56     O    0.69722   0.99776   0.04672   1.000
    O57     O    0.66631   0.92391   0.02253   1.000
    C58     C    0.84932   0.37686   0.03761   1.000
    O59     O    0.91372   0.43842   0.07699   1.000
    O60     O    0.82731   0.33404   0.02200   1.000
    O61     O    0.81162   0.39143   0.02634   1.000
    C62     C    0.84932   0.87686   0.03761   1.000
    O63     O    0.91372   0.93842   0.07699   1.000
    O64     O    0.82731   0.83404   0.02200   1.000
    O65     O    0.81162   0.89143   0.02634   1.000
    C66     C    0.68809   0.81161   0.87506   1.000
    O67     O    0.70760   0.83167   0.90871   1.000
    O68     O    0.71259   0.79301   0.91523   1.000
    O69     O    0.69240   0.84256   0.89509   1.000
    O70     O    0.64266   0.74246   0.81384   1.000
    C71     C    0.81193   0.68842   0.12491   1.000
    O72     O    0.85736   0.75757   0.18613   1.000
    O73     O    0.78744   0.70702   0.08474   1.000
    O74     O    0.79242   0.66836   0.09127   1.000
    O75     O    0.80763   0.65747   0.10489   1.000
    C76     C    0.84386   0.55146   0.95268   1.000
    O77     O    0.88267   0.51429   0.91597   1.000
    O78     O    0.83372   0.57612   0.97744   1.000
    O79     O    0.80280   0.50227   0.95325   1.000
    C80     C    0.65070   0.62316   0.96236   1.000
    O81     O    0.67271   0.66598   0.97798   1.000
    O82     O    0.58630   0.56160   0.92298   1.000
    O83     O    0.68839   0.60858   0.97364   1.000
    C84     C    0.84385   0.05146   0.95266   1.000
    O85     O    0.88267   0.01429   0.91595   1.000
    O86     O    0.83372   0.07612   0.97743   1.000
    O87     O    0.80280   0.00227   0.95324   1.000
    C88     C    0.65070   0.12315   0.96236   1.000
    O89     O    0.67271   0.16598   0.97798   1.000
    O90     O    0.68839   0.10858   0.97364   1.000
    O91     O    0.58629   0.06160   0.92298   1.000
    C92     C    0.47249   0.62315   0.46230   1.000
    O93     O    0.42020   0.60855   0.47359   1.000
    O94     O    0.47537   0.56163   0.42293   1.000
    O95     O    0.49328   0.66599   0.47793   1.000
    C96     C    0.87626   0.18833   0.62488   1.000
    O97     O    0.89984   0.25748   0.68613   1.000
    O98     O    0.84962   0.15742   0.60483   1.000
    O99     O    0.91945   0.20692   0.58474   1.000
    O100    O    0.87578   0.16825   0.59126   1.000
    C101    C    0.37627   0.68834   0.62490   1.000
    O102    O    0.34963   0.65743   0.60486   1.000
    O103    O    0.40008   0.75749   0.68613   1.000
    O104    O    0.41945   0.70693   0.58475   1.000
    O105    O    0.37579   0.66826   0.59127   1.000
    C106    C    0.12375   0.31168   0.37507   1.000
    O107    O    0.15039   0.34260   0.39511   1.000
    O108    O    0.08057   0.29309   0.41523   1.000
    O109    O    0.12423   0.33177   0.40871   1.000
    O110    O    0.09994   0.24254   0.31384   1.000
    C111    C    0.02752   0.37687   0.53767   1.000
    O112    O    0.07982   0.39147   0.52639   1.000
    O113    O    0.02465   0.43839   0.57704   1.000
    O114    O    0.00673   0.33403   0.52204   1.000
    C115    C    0.70765   0.05149   0.45274   1.000
    O116    O    0.63145   0.01433   0.41601   1.000
    O117    O    0.74242   0.07612   0.47749   1.000
    O118    O    0.69951   0.00231   0.45330   1.000
    C119    C    0.52753   0.87687   0.53765   1.000
    O120    O    0.50673   0.83403   0.52203   1.000
    O121    O    0.57982   0.89148   0.52638   1.000
    O122    O    0.52465   0.93839   0.57702   1.000
    C123    C    0.79236   0.94854   0.54724   1.000
    O124    O    0.86856   0.98569   0.58397   1.000
    O125    O    0.80050   0.99772   0.54669   1.000
    O126    O    0.75760   0.92391   0.52249   1.000
    C127    C    0.62375   0.81169   0.37508   1.000
    O128    O    0.58057   0.79310   0.41523   1.000
    O129    O    0.62423   0.83177   0.40871   1.000
    O130    O    0.65040   0.84260   0.39512   1.000
    O131    O    0.59994   0.74254   0.31384   1.000
    C132    C    0.97248   0.12315   0.46231   1.000
    O133    O    0.99328   0.16599   0.47794   1.000
    O134    O    0.92019   0.10854   0.47359   1.000
    O135    O    0.97536   0.06163   0.42293   1.000
    C136    C    0.29237   0.44854   0.54724   1.000
    O137    O    0.25760   0.42391   0.52249   1.000
    O138    O    0.36857   0.48569   0.58396   1.000
    O139    O    0.30050   0.49772   0.54669   1.000
    C140    C    0.20766   0.55149   0.45274   1.000
    O141    O    0.13146   0.51433   0.41601   1.000
    O142    O    0.19952   0.50230   0.45330   1.000
    O143    O    0.24242   0.57612   0.47749   1.000
    C144    C    0.15617   0.44857   0.04731   1.000
    O145    O    0.19722   0.49776   0.04674   1.000
    O146    O    0.11712   0.48574   0.08400   1.000
    O147    O    0.16631   0.42391   0.02254   1.000
    C148    C    0.18809   0.31161   0.87506   1.000
    O149    O    0.14266   0.24246   0.81384   1.000
    O150    O    0.20760   0.33167   0.90871   1.000
    O151    O    0.21259   0.29301   0.91524   1.000
    O152    O    0.19240   0.34255   0.89509   1.000
    C153    C    0.15070   0.62316   0.96236   1.000
    O154    O    0.08606   0.56160   0.92298   1.000
    O155    O    0.18840   0.60858   0.97364   1.000
    O156    O    0.17272   0.66598   0.97797   1.000
    C157    C    0.34933   0.87686   0.03761   1.000
    O158    O    0.41372   0.93842   0.07698   1.000
    O159    O    0.32732   0.83404   0.02199   1.000
    O160    O    0.31163   0.89143   0.02634   1.000
    C161    C    0.15617   0.94857   0.04731   1.000
    O162    O    0.19722   0.99776   0.04674   1.000
    O163    O    0.11712   0.98574   0.08401   1.000
    O164    O    0.16631   0.92392   0.02254   1.000
    C165    C    0.18809   0.81161   0.87506   1.000
    O166    O    0.19240   0.84256   0.89509   1.000
    O167    O    0.20760   0.83167   0.90871   1.000
    O168    O    0.21259   0.79301   0.91523   1.000
    O169    O    0.14267   0.74246   0.81384   1.000
    C170    C    0.34932   0.37686   0.03761   1.000
    O171    O    0.32731   0.33404   0.02200   1.000
    O172    O    0.31163   0.39143   0.02634   1.000
    O173    O    0.41372   0.43842   0.07699   1.000
    C174    C    0.31193   0.18841   0.12492   1.000
    O175    O    0.30763   0.15747   0.10489   1.000
    O176    O    0.35736   0.25757   0.18614   1.000
    O177    O    0.28744   0.20701   0.08475   1.000
    O178    O    0.29242   0.16835   0.09128   1.000
    C179    C    0.15070   0.12315   0.96234   1.000
    O180    O    0.17271   0.16598   0.97797   1.000
    O181    O    0.18840   0.10858   0.97363   1.000
    O182    O    0.08606   0.06160   0.92296   1.000
    C183    C    0.34386   0.55147   0.95268   1.000
    O184    O    0.33372   0.57612   0.97744   1.000
    O185    O    0.38291   0.51430   0.91597   1.000
    O186    O    0.30281   0.50227   0.95325   1.000
    C187    C    0.34386   0.05146   0.95266   1.000
    O188    O    0.38291   0.01429   0.91596   1.000
    O189    O    0.30281   0.00227   0.95322   1.000
    O190    O    0.33372   0.07612   0.97743   1.000
    C191    C    0.31194   0.68842   0.12491   1.000
    O192    O    0.35736   0.75757   0.18613   1.000
    O193    O    0.30763   0.65747   0.10489   1.000
    O194    O    0.28744   0.70702   0.08474   1.000
    O195    O    0.29243   0.66836   0.09127   1.000
    C196    C    0.02753   0.87687   0.53767   1.000
    O197    O    0.02465   0.93840   0.57704   1.000
    O198    O    0.00673   0.83403   0.52204   1.000
    O199    O    0.07982   0.89148   0.52639   1.000
    C200    C    0.79236   0.44854   0.54724   1.000
    O201    O    0.75759   0.42390   0.52249   1.000
    O202    O    0.86856   0.48569   0.58397   1.000
    O203    O    0.80050   0.49772   0.54669   1.000
    C204    C    0.20765   0.05149   0.45274   1.000
    O205    O    0.13146   0.01433   0.41601   1.000
    O206    O    0.19952   0.00231   0.45330   1.000
    O207    O    0.24242   0.07612   0.47749   1.000
    C208    C    0.12376   0.81169   0.37505   1.000
    O209    O    0.08057   0.79310   0.41520   1.000
    O210    O    0.12424   0.83177   0.40868   1.000
    O211    O    0.15040   0.84260   0.39511   1.000
    O212    O    0.09995   0.74254   0.31382   1.000
    C213    C    0.47248   0.12315   0.46229   1.000
    O214    O    0.42020   0.10854   0.47358   1.000
    O215    O    0.47537   0.06163   0.42293   1.000
    O216    O    0.49328   0.16599   0.47792   1.000
    C217    C    0.29237   0.94854   0.54722   1.000
    O218    O    0.30051   0.99772   0.54668   1.000
    O219    O    0.25760   0.92391   0.52248   1.000
    O220    O    0.36857   0.98569   0.58395   1.000
    C221    C    0.52752   0.37687   0.53765   1.000
    O222    O    0.57981   0.39147   0.52638   1.000
    O223    O    0.50673   0.33403   0.52203   1.000
    O224    O    0.52465   0.43839   0.57702   1.000
    C225    C    0.62375   0.31169   0.37507   1.000
    O226    O    0.58057   0.29310   0.41523   1.000
    O227    O    0.62423   0.33177   0.40870   1.000
    O228    O    0.59994   0.24254   0.31383   1.000
    O229    O    0.65039   0.34260   0.39511   1.000
    C230    C    0.37627   0.18834   0.62490   1.000
    O231    O    0.34962   0.15742   0.60486   1.000
    O232    O    0.41945   0.20693   0.58475   1.000
    O233    O    0.37579   0.16825   0.59127   1.000
    O234    O    0.40008   0.25748   0.68613   1.000
    C235    C    0.97249   0.62315   0.46230   1.000
    O236    O    0.92020   0.60855   0.47359   1.000
    O237    O    0.97537   0.56163   0.42293   1.000
    O238    O    0.99328   0.66599   0.47793   1.000
    C239    C    0.87627   0.68834   0.62489   1.000
    O240    O    0.84962   0.65743   0.60485   1.000
    O241    O    0.89984   0.75749   0.68613   1.000
    O242    O    0.91945   0.70693   0.58474   1.000
    O243    O    0.87579   0.66826   0.59127   1.000
    C244    C    0.70765   0.55149   0.45274   1.000
    O245    O    0.69951   0.50231   0.45330   1.000
    O246    O    0.74242   0.57612   0.47749   1.000
    O247    O    0.63145   0.51434   0.41601   1.000
loop_
    _geom_bond_atom_site_label_1
    _geom_bond_atom_site_label_2
    _geom_bond_distance
    _geom_bond_site_symmetry_2
    _ccdc_geom_bond_type
    C40    O41       1.63476      .   S
    N26    O41       3.73006      .   S
    C40    O42       0.69301      .   S
    Zr2    O42       1.73817      .   S
    C40    O43       1.11783      .   S
    Zr18   O43       2.25193  1_554   S
    C40    O44       0.70325      .   S
    Zr2    O44       1.72283      .   S
    C45    O46       1.48065      .   S
    N36    O46       3.36494      .   S
    C45    O47       1.06017      .   S
    Zr11   O47       2.15168      .   S
    C45    O48       0.75889      .   S
    Zr2    O48       1.73614  1_556   S
    C49    O50       1.63475      .   S
    N37    O50       3.73002      .   S
    C49    O51       0.70326      .   S
    Zr10   O51       1.72281      .   S
    C49    O52       1.11772      .   S
    Zr18   O52       2.25170      .   S
    C49    O53       0.69299      .   S
    Zr10   O53       1.73819      .   S
    C54    O55       1.48070      .   S
    N38    O55       3.36496  1_545   S
    C54    O56       1.06018      .   S
    Zr10   O56       2.15151  1_545   S
    C54    O57       0.75885      .   S
    Zr3    O57       1.73611  1_556   S
    C58    O59       1.48713      .   S
    N24    O59       3.39945  1_455   S
    C58    O60       0.86613      .   S
    Zr18   O60       1.83124      .   S
    C58    O61       0.99381      .   S
    Zr2    O61       2.06830  1_556   S
    C62    O63       1.48714      .   S
    N33    O63       3.39949  1_445   S
    C62    O64       0.86613      .   S
    Zr19   O64       1.83123  1_556   S
    C62    O65       0.99381      .   S
    Zr3    O65       2.06828  1_556   S
    C66    O67       0.69301      .   S
    Zr3    O67       1.73815      .   S
    C66    O68       1.11780      .   S
    Zr19   O68       2.25182      .   S
    C66    O69       0.70324      .   S
    Zr3    O69       1.72282      .   S
    C66    O70       1.63478      .   S
    N27    O70       3.73007      .   S
    C71    O72       1.63475      .   S
    N32    O72       3.73001      .   S
    C71    O73       1.11777      .   S
    Zr19   O73       2.25175  1_556   S
    C71    O74       0.69301      .   S
    Zr11   O74       1.73817      .   S
    C71    O75       0.70326      .   S
    Zr11   O75       1.72281      .   S
    C76    O77       1.47693      .   S
    N31    O77       3.35477      .   S
    C76    O78       0.75885      .   S
    Zr11   O78       1.73611  1_554   S
    C76    O79       1.06024      .   S
    Zr2    O79       2.15181      .   S
    C80    O81       0.86622      .   S
    Zr19   O81       1.83141      .   S
    C80    O82       1.48714      .   S
    N39    O82       3.39954      .   S
    C80    O83       0.99379      .   S
    Zr11   O83       2.06824  1_554   S
    C84    O85       1.47692      .   S
    N34    O85       3.35467  1_565   S
    C84    O86       0.75893      .   S
    Zr10   O86       1.73618  1_554   S
    C84    O87       1.06023      .   S
    Zr3    O87       2.15175  1_565   S
    C88    O89       0.86621      .   S
    Zr18   O89       1.83140  1_554   S
    C88    O90       0.99379      .   S
    Zr10   O90       2.06825  1_554   S
    C88    O91       1.48711      .   S
    N30    O91       3.39945  1_565   S
    C92    O93       0.99336      .   S
    Zr5    O93       2.06755      .   S
    C92    O94       1.48672      .   S
    N28    O94       3.39859      .   S
    C92    O95       0.86656      .   S
    Zr23   O95       1.83172      .   S
    C96    O97       1.63526      .   S
    N31    O97       3.73179      .   S
    C96    O98       0.70295      .   S
    Zr6    O98       1.72266      .   S
    C96    O99       1.11721      .   S
    Zr20   O99       2.25115  1_455   S
    C96    O100      0.69312      .   S
    Zr6    O100      1.73754      .   S
    C101   O102      0.70293      .   S
    Zr5    O102      1.72293      .   S
    C101   O103      1.63453      .   S
    N30    O103      3.72957      .   S
    C101   O104      1.11729      .   S
    Zr23   O104      2.25119      .   S
    C101   O105      0.69323      .   S
    Zr5    O105      1.73764      .   S
    C106   O107      0.70291      .   S
    Zr12   O107      1.72309      .   S
    C106   O108      1.11736      .   S
    Zr20   O108      2.25130      .   S
    C106   O109      0.69330      .   S
    Zr12   O109      1.73767      .   S
    C106   O110      1.63450      .   S
    N33    O110      3.72959      .   S
    C111   O112      0.99340      .   S
    Zr12   O112      2.06759      .   S
    C111   O113      1.48676      .   S
    N35    O113      3.39864      .   S
    C111   O114      0.86652      .   S
    Zr20   O114      1.83169      .   S
    C115   O116      1.48093      .   S
    N29    O116      3.36558  1_565   S
    C115   O117      0.75849      .   S
    Zr6    O117      1.73567      .   S
    C115   O118      1.06039      .   S
    Zr15   O118      2.15197  1_565   S
    C119   O120      0.86649      .   S
    Zr23   O120      1.83165      .   S
    C119   O121      0.99331      .   S
    Zr15   O121      2.06746      .   S
    C119   O122      1.48673      .   S
    N26    O122      3.39874  1_545   S
    C123   O124      1.48094      .   S
    N25    O124      3.36557  1_445   S
    C123   O125      1.06035      .   S
    Zr6    O125      2.15191  1_545   S
    C123   O126      0.75854      .   S
    Zr15   O126      1.73571      .   S
    C127   O128      1.11732      .   S
    Zr23   O128      2.25125      .   S
    C127   O129      0.69326      .   S
    Zr15   O129      1.73761      .   S
    C127   O130      0.70291      .   S
    Zr15   O130      1.72297      .   S
    C127   O131      1.63454      .   S
    N36    O131      3.72964      .   S
    C132   O133      0.86657      .   S
    Zr20   O133      1.83171  1_455   S
    C132   O134      0.99337      .   S
    Zr6    O134      2.06754      .   S
    C132   O135      1.48672      .   S
    N32    O135      3.39855  1_565   S
    C136   O137      0.75855      .   S
    Zr12   O137      1.73574      .   S
    C136   O138      1.48087      .   S
    N27    O138      3.36564      .   S
    C136   O139      1.06038      .   S
    Zr5    O139      2.15199      .   S
    C140   O141      1.48099      .   S
    N37    O141      3.36571  1_655   S
    C140   O142      1.06039      .   S
    Zr12   O142      2.15200      .   S
    C140   O143      0.75851      .   S
    Zr5    O143      1.73568      .   S
    C144   O145      1.06020      .   S
    Zr9    O145      2.15174      .   S
    C144   O146      1.48061      .   S
    N24    O146      3.36477      .   S
    C144   O147      0.75893      .   S
    Zr0    O147      1.73619  1_556   S
    C148   O149      1.63476      .   S
    N25    O149      3.73007      .   S
    C148   O150      0.69302      .   S
    Zr0    O150      1.73817      .   S
    C148   O151      1.11783      .   S
    Zr16   O151      2.25192  1_554   S
    C148   O152      0.70325      .   S
    Zr0    O152      1.72284      .   S
    C153   O154      1.48935      .   S
    N31    O154      3.40482  1_655   S
    C153   O155      0.99379      .   S
    Zr9    O155      2.06824  1_554   S
    C153   O156      0.86619      .   S
    Zr17   O156      1.83133      .   S
    C157   O158      1.48706      .   S
    N38    O158      3.39955  1_545   S
    C157   O159      0.86616      .   S
    Zr17   O159      1.83133  1_556   S
    C157   O160      0.99382      .   S
    Zr1    O160      2.06831  1_556   S
    C161   O162      1.06015      .   S
    Zr8    O162      2.15161  1_545   S
    C161   O163      1.48065      .   S
    N33    O163      3.36490  1_545   S
    C161   O164      0.75893      .   S
    Zr1    O164      1.73619  1_556   S
    C165   O166      0.70324      .   S
    Zr1    O166      1.72282      .   S
    C165   O167      0.69301      .   S
    Zr1    O167      1.73815      .   S
    C165   O168      1.11778      .   S
    Zr17   O168      2.25176      .   S
    C165   O169      1.63477      .   S
    N35    O169      3.73005      .   S
    C170   O171      0.86612      .   S
    Zr16   O171      1.83123      .   S
    C170   O172      0.99381      .   S
    Zr0    O172      2.06829  1_556   S
    C170   O173      1.48716      .   S
    N36    O173      3.39955      .   S
    C174   O175      0.70326      .   S
    Zr8    O175      1.72282      .   S
    C174   O176      1.63476      .   S
    N28    O176      3.73003      .   S
    C174   O177      1.11773      .   S
    Zr16   O177      2.25169      .   S
    C174   O178      0.69299      .   S
    Zr8    O178      1.73820      .   S
    C179   O180      0.86624      .   S
    Zr16   O180      1.83141  1_554   S
    C179   O181      0.99384      .   S
    Zr8    O181      2.06833  1_554   S
    C179   O182      1.48932      .   S
    N34    O182      3.40466  1_665   S
    C183   O184      0.75885      .   S
    Zr9    O184      1.73610  1_554   S
    C183   O185      1.48069      .   S
    N39    O185      3.36499      .   S
    C183   O186      1.06024      .   S
    Zr0    O186      2.15180      .   S
    C187   O188      1.48063      .   S
    N30    O188      3.36492  1_565   S
    C187   O189      1.06019      .   S
    Zr1    O189      2.15183  1_565   S
    C187   O190      0.75891      .   S
    Zr8    O190      1.73616  1_554   S
    C191   O192      1.63475      .   S
    N29    O192      3.73003      .   S
    C191   O193      0.70325      .   S
    Zr9    O193      1.72277      .   S
    C191   O194      1.11777      .   S
    Zr17   O194      2.25181  1_556   S
    C191   O195      0.69298      .   S
    Zr9    O195      1.73815      .   S
    C196   O197      1.48673      .   S
    N25    O197      3.39858  1_545   S
    C196   O198      0.86652      .   S
    Zr21   O198      1.83160      .   S
    C196   O199      0.99338      .   S
    Zr13   O199      2.06758      .   S
    C200   O201      0.75854      .   S
    Zr14   O201      1.73571      .   S
    C200   O202      1.48097      .   S
    N35    O202      3.36566  1_455   S
    C200   O203      1.06038      .   S
    Zr7    O203      2.15200      .   S
    C204   O205      1.48096      .   S
    N32    O205      3.36564  1_665   S
    C204   O206      1.06038      .   S
    Zr13   O206      2.15195  1_565   S
    C204   O207      0.75850      .   S
    Zr4    O207      1.73567      .   S
    C208   O209      1.11725      .   S
    Zr21   O209      2.25173      .   S
    C208   O210      0.69317      .   S
    Zr13   O210      1.73792      .   S
    C208   O211      0.70299      .   S
    Zr13   O211      1.72313      .   S
    C208   O212      1.63450      .   S
    N24    O212      3.72971      .   S
    C213   O214      0.99339      .   S
    Zr4    O214      2.06760      .   S
    C213   O215      1.48668      .   S
    N29    O215      3.39852  1_565   S
    C213   O216      0.86655      .   S
    Zr22   O216      1.83173      .   S
    C217   O218      1.06032      .   S
    Zr4    O218      2.15185  1_545   S
    C217   O219      0.75845      .   S
    Zr13   O219      1.73563      .   S
    C217   O220      1.48092      .   S
    N26    O220      3.36562  1_545   S
    C221   O222      0.99331      .   S
    Zr14   O222      2.06746      .   S
    C221   O223      0.86649      .   S
    Zr22   O223      1.83166      .   S
    C221   O224      1.48677      .   S
    N27    O224      3.39877      .   S
    C225   O226      1.11741      .   S
    Zr22   O226      2.25135      .   S
    C225   O227      0.69335      .   S
    Zr14   O227      1.73768      .   S
    C225   O228      1.63452      .   S
    N38    O228      3.72951      .   S
    C225   O229      0.70295      .   S
    Zr14   O229      1.72306      .   S
    C230   O231      0.70293      .   S
    Zr4    O231      1.72292      .   S
    C230   O232      1.11729      .   S
    Zr22   O232      2.25120      .   S
    C230   O233      0.69323      .   S
    Zr4    O233      1.73762      .   S
    C230   O234      1.63453      .   S
    N39    O234      3.72959      .   S
    C235   O236      0.99338      .   S
    Zr7    O236      2.06756      .   S
    C235   O237      1.48674      .   S
    N37    O237      3.39861      .   S
    C235   O238      0.86656      .   S
    Zr21   O238      1.83180  1_455   S
    C239   O240      0.70292      .   S
    Zr7    O240      1.72290      .   S
    C239   O241      1.63516      .   S
    N34    O241      3.73168      .   S
    C239   O242      1.11728      .   S
    Zr21   O242      2.25122  1_455   S
    C239   O243      0.69320      .   S
    Zr7    O243      1.73762      .   S
    C244   O245      1.06040      .   S
    Zr14   O245      2.15204      .   S
    C244   O246      0.75850      .   S
    Zr7    O246      1.73567      .   S
    C244   O247      1.48096      .   S
    N28    O247      3.36564      .   S
