# CIF file generated by openbabel 2.4.90, see http://openbabel.sf.net
data_I
_chemical_name_common ''
_cell_length_a 10.412
_cell_length_b 18.782
_cell_length_c 27.669
_cell_angle_alpha 90.002
_cell_angle_beta 89.095
_cell_angle_gamma 89.994
_space_group_name_H-M_alt 'P 1'
_space_group_name_Hall 'P 1'
loop_
    _symmetry_equiv_pos_as_xyz
    x,y,z
loop_
    _atom_site_label
    _atom_site_type_symbol
    _atom_site_fract_x
    _atom_site_fract_y
    _atom_site_fract_z
    _atom_site_occupancy
    Lv0     Lv   0.62278   0.25997   0.72010   1.000
    Lv1     Lv   0.37697   0.74009   0.27999   1.000
    Lv2     Lv   0.37693   0.75990   0.77970   1.000
    Lv3     Lv   0.12263   0.25997   0.72010   1.000
    Lv4     Lv   0.99983   0.99998   0.99997   1.000
    Lv5     Lv   0.12268   0.24002   0.22007   1.000
    Lv6     Lv   0.49986   0.49999   0.49999   1.000
    Lv7     Lv   0.87698   0.74008   0.27999   1.000
    Lv8     Lv   0.99985   0.49999   0.49999   1.000
    Lv9     Lv   0.49990   0.00000   0.00001   1.000
    Lv10    Lv   0.62283   0.24002   0.22009   1.000
    Lv11    Lv   0.87694   0.75990   0.77998   1.000
