# CIF file generated by openbabel 2.4.90, see http://openbabel.sf.net
data_I
_chemical_name_common ''
_cell_length_a 10.412
_cell_length_b 18.782
_cell_length_c 27.669
_cell_angle_alpha 90.002
_cell_angle_beta 89.095
_cell_angle_gamma 89.994
_space_group_name_H-M_alt 'P 1'
_space_group_name_Hall 'P 1'
loop_
    _symmetry_equiv_pos_as_xyz
    x,y,z
loop_
    _atom_site_label
    _atom_site_type_symbol
    _atom_site_fract_x
    _atom_site_fract_y
    _atom_site_fract_z
    _atom_site_occupancy
    C0      C    0.32165   0.22523   0.50400   1.000
    C1      C    0.82164   0.22522   0.50460   1.000
    C2      C    0.17825   0.77477   0.49542   1.000
    C3      C    0.67825   0.77477   0.49541   1.000
    C4      C    0.17513   0.90298   0.61208   1.000
    C5      C    0.67512   0.90298   0.61207   1.000
    C6      C    0.16797   0.56666   0.93974   1.000
    C7      C    0.66796   0.56666   0.93974   1.000
    C8      C    0.32165   0.27474   0.00460   1.000
    C9      C    0.82165   0.27475   0.00460   1.000
    C10     C    0.32489   0.40304   0.88809   1.000
    C11     C    0.82488   0.40303   0.88800   1.000
    C12     C    0.33188   0.06667   0.56039   1.000
    C13     C    0.83188   0.06668   0.56039   1.000
    C14     C    0.32483   0.09695   0.38803   1.000
    C15     C    0.82483   0.09695   0.38804   1.000
    C16     C    0.33190   0.43333   0.06044   1.000
    C17     C    0.83191   0.43333   0.06043   1.000
    C18     C    0.17825   0.72524   0.99541   1.000
    C19     C    0.67824   0.72523   0.99539   1.000
    C20     C    0.17506   0.59701   0.11202   1.000
    C21     C    0.67506   0.59702   0.11202   1.000
    C22     C    0.16799   0.93331   0.43976   1.000
    C23     C    0.66799   0.93331   0.43970   1.000
    O24     O    0.27254   0.80019   0.51878   1.000
    O25     O    0.77254   0.80019   0.51878   1.000
    O26     O    0.07147   0.80688   0.48975   1.000
    O27     O    0.57147   0.80688   0.48970   1.000
    O28     O    0.28447   0.91991   0.59456   1.000
    O29     O    0.78446   0.91991   0.59455   1.000
    O30     O    0.07608   0.89034   0.58708   1.000
    O31     O    0.57606   0.89034   0.58707   1.000
    O32     O    0.27963   0.57498   0.95560   1.000
    O33     O    0.77962   0.57497   0.95561   1.000
    O34     O    0.07738   0.53390   0.96378   1.000
    O35     O    0.57738   0.53389   0.96378   1.000
    O36     O    0.22742   0.30021   0.98122   1.000
    O37     O    0.72742   0.30020   0.98122   1.000
    O38     O    0.42844   0.30682   0.01028   1.000
    O39     O    0.92845   0.30683   0.01028   1.000
    O40     O    0.21569   0.42007   0.90571   1.000
    O41     O    0.71567   0.42004   0.90570   1.000
    O42     O    0.42408   0.39035   0.91301   1.000
    O43     O    0.92408   0.39035   0.91301   1.000
    O44     O    0.22024   0.07499   0.54450   1.000
    O45     O    0.72024   0.07499   0.54449   1.000
    O46     O    0.42254   0.03388   0.53641   1.000
    O47     O    0.92254   0.03388   0.53641   1.000
    O48     O    0.22740   0.19978   0.48120   1.000
    O49     O    0.72740   0.19978   0.48121   1.000
    O50     O    0.42846   0.19315   0.51026   1.000
    O51     O    0.92845   0.19315   0.51026   1.000
    O52     O    0.21561   0.07993   0.40563   1.000
    O53     O    0.71562   0.07993   0.40564   1.000
    O54     O    0.42399   0.10963   0.41297   1.000
    O55     O    0.92399   0.10963   0.41297   1.000
    O56     O    0.22025   0.42502   0.04455   1.000
    O57     O    0.72026   0.42502   0.04454   1.000
    O58     O    0.42255   0.46611   0.03645   1.000
    O59     O    0.92255   0.46613   0.03645   1.000
    O60     O    0.27253   0.69981   0.01878   1.000
    O61     O    0.77252   0.69981   0.01878   1.000
    O62     O    0.07148   0.69314   0.98973   1.000
    O63     O    0.57147   0.69313   0.98970   1.000
    O64     O    0.28436   0.58007   0.09440   1.000
    O65     O    0.78436   0.58008   0.09445   1.000
    O66     O    0.07595   0.60966   0.08706   1.000
    O67     O    0.57593   0.60966   0.08706   1.000
    O68     O    0.27965   0.92499   0.45563   1.000
    O69     O    0.77965   0.92499   0.45564   1.000
    O70     O    0.07740   0.96608   0.46381   1.000
    O71     O    0.57739   0.96608   0.46381   1.000
loop_
    _geom_bond_atom_site_label_1
    _geom_bond_atom_site_label_2
    _geom_bond_distance
    _geom_bond_site_symmetry_2
    _ccdc_geom_bond_type
    C9     O39       1.27660      .   S
    C9     O37       1.27655  1_554   S
    C8     O38       1.27656      .   S
    C8     O36       1.27668  1_554   S
    O60    C18       1.27668  1_554   S
    O61    C19       1.27682  1_554   S
    O59    C17       1.30028      .   S
    O58    C16       1.30036      .   S
    O57    C17       1.25905      .   S
    O56    C16       1.25907      .   S
    O67    C21       1.27317      .   S
    O66    C20       1.27314      .   S
    O64    C20       1.27137      .   S
    O65    C21       1.27086      .   S
    C14    O52       1.27089      .   S
    C14    O54       1.27330      .   S
    C15    O53       1.27087      .   S
    C15    O55       1.27316      .   S
    C23    O69       1.25968      .   S
    C23    O71       1.30139      .   S
    C22    O68       1.25897      .   S
    C22    O70       1.30052      .   S
    O48    C0        1.26845      .   S
    O49    C1        1.27675      .   S
    O27    C3        1.27679      .   S
    O26    C2        1.27660      .   S
    C3     O25       1.27666      .   S
    C2     O24       1.27662      .   S
    C0     O50       1.27893      .   S
    C1     O51       1.27658      .   S
    O47    C13       1.30032      .   S
    O46    C12       1.30026      .   S
    O45    C13       1.25905      .   S
    O44    C12       1.25898      .   S
    O31    C5        1.27323      .   S
    O30    C4        1.27321      .   S
    O29    C5        1.27079      .   S
    O28    C4        1.27082      .   S
    C11    O41       1.27169      .   S
    C11    O43       1.27467      .   S
    C10    O40       1.27087      .   S
    C10    O42       1.27329      .   S
    C7     O33       1.25900      .   S
    C7     O35       1.30046      .   S
    C6     O32       1.25889      .   S
    C6     O34       1.30039      .   S
    O63    C19       1.27666      .   S
    O62    C18       1.27657      .   S
