# CIF file generated by openbabel 2.4.90, see http://openbabel.sf.net
data_I
_chemical_name_common ''
_cell_length_a 10.412
_cell_length_b 18.782
_cell_length_c 27.669
_cell_angle_alpha 90.002
_cell_angle_beta 89.095
_cell_angle_gamma 89.994
_space_group_name_H-M_alt 'P 1'
_space_group_name_Hall 'P 1'
loop_
    _symmetry_equiv_pos_as_xyz
    x,y,z
loop_
    _atom_site_label
    _atom_site_type_symbol
    _atom_site_fract_x
    _atom_site_fract_y
    _atom_site_fract_z
    _atom_site_occupancy
    Zr0     Zr   0.42354   0.89716   0.52308   1.000
    Zr1     Zr   0.92354   0.89716   0.52308   1.000
    Zr2     Zr   0.07640   0.39719   0.97708   1.000
    Zr3     Zr   0.57638   0.39718   0.97708   1.000
    Zr4     Zr   0.07637   0.10280   0.47703   1.000
    Zr5     Zr   0.57636   0.10281   0.47703   1.000
    Zr6     Zr   0.42352   0.60283   0.02305   1.000
    Zr7     Zr   0.92352   0.60284   0.02305   1.000
    Zr8     Zr   0.17825   0.77477   0.49542   1.000
    Zr9     Zr   0.67825   0.77477   0.49541   1.000
    Zr10    Zr   0.17513   0.90298   0.61208   1.000
    Zr11    Zr   0.67512   0.90298   0.61207   1.000
    Zr12    Zr   0.16797   0.56666   0.93974   1.000
    Zr13    Zr   0.66796   0.56666   0.93974   1.000
    Zr14    Zr   0.32165   0.27474   0.00460   1.000
    Zr15    Zr   0.82165   0.27475   0.00460   1.000
    Zr16    Zr   0.32489   0.40304   0.88809   1.000
    Zr17    Zr   0.82488   0.40303   0.88800   1.000
    Zr18    Zr   0.33188   0.06667   0.56039   1.000
    Zr19    Zr   0.83188   0.06668   0.56039   1.000
    Zr20    Zr   0.32165   0.22523   0.50400   1.000
    Zr21    Zr   0.82164   0.22522   0.50460   1.000
    Zr22    Zr   0.32483   0.09695   0.38803   1.000
    Zr23    Zr   0.82483   0.09695   0.38804   1.000
    Zr24    Zr   0.33190   0.43333   0.06044   1.000
    Zr25    Zr   0.83191   0.43333   0.06043   1.000
    Zr26    Zr   0.17825   0.72524   0.99541   1.000
    Zr27    Zr   0.67824   0.72523   0.99539   1.000
    Zr28    Zr   0.17506   0.59701   0.11202   1.000
    Zr29    Zr   0.67506   0.59702   0.11202   1.000
    Zr30    Zr   0.16799   0.93331   0.43976   1.000
    Zr31    Zr   0.66799   0.93331   0.43970   1.000
    Zr32    Zr   0.27254   0.80019   0.51878   1.000
    Zr33    Zr   0.77254   0.80019   0.51878   1.000
    Zr34    Zr   0.07147   0.80688   0.48975   1.000
    Zr35    Zr   0.57147   0.80688   0.48970   1.000
    Zr36    Zr   0.28447   0.91991   0.59456   1.000
    Zr37    Zr   0.78446   0.91991   0.59455   1.000
    Zr38    Zr   0.07608   0.89034   0.58708   1.000
    Zr39    Zr   0.57606   0.89034   0.58707   1.000
    Zr40    Zr   0.27963   0.57498   0.95560   1.000
    Zr41    Zr   0.77962   0.57497   0.95561   1.000
    Zr42    Zr   0.07738   0.53390   0.96378   1.000
    Zr43    Zr   0.57738   0.53389   0.96378   1.000
    Zr44    Zr   0.22742   0.30021   0.98122   1.000
    Zr45    Zr   0.72742   0.30020   0.98122   1.000
    Zr46    Zr   0.42844   0.30682   0.01028   1.000
    Zr47    Zr   0.92845   0.30683   0.01028   1.000
    Zr48    Zr   0.21569   0.42007   0.90571   1.000
    Zr49    Zr   0.71567   0.42004   0.90570   1.000
    Zr50    Zr   0.42408   0.39035   0.91301   1.000
    Zr51    Zr   0.92408   0.39035   0.91301   1.000
    Zr52    Zr   0.22024   0.07499   0.54450   1.000
    Zr53    Zr   0.72024   0.07499   0.54449   1.000
    Zr54    Zr   0.42254   0.03388   0.53641   1.000
    Zr55    Zr   0.92254   0.03388   0.53641   1.000
    Zr56    Zr   0.22740   0.19978   0.48120   1.000
    Zr57    Zr   0.72740   0.19978   0.48121   1.000
    Zr58    Zr   0.42846   0.19315   0.51026   1.000
    Zr59    Zr   0.92845   0.19315   0.51026   1.000
    Zr60    Zr   0.21561   0.07993   0.40563   1.000
    Zr61    Zr   0.71562   0.07993   0.40564   1.000
    Zr62    Zr   0.42399   0.10963   0.41297   1.000
    Zr63    Zr   0.92399   0.10963   0.41297   1.000
    Zr64    Zr   0.22025   0.42502   0.04455   1.000
    Zr65    Zr   0.72026   0.42502   0.04454   1.000
    Zr66    Zr   0.42255   0.46611   0.03645   1.000
    Zr67    Zr   0.92255   0.46613   0.03645   1.000
    Zr68    Zr   0.27253   0.69981   0.01878   1.000
    Zr69    Zr   0.77252   0.69981   0.01878   1.000
    Zr70    Zr   0.07148   0.69314   0.98973   1.000
    Zr71    Zr   0.57147   0.69313   0.98970   1.000
    Zr72    Zr   0.28436   0.58007   0.09440   1.000
    Zr73    Zr   0.78436   0.58008   0.09445   1.000
    Zr74    Zr   0.07595   0.60966   0.08706   1.000
    Zr75    Zr   0.57593   0.60966   0.08706   1.000
    Zr76    Zr   0.27965   0.92499   0.45563   1.000
    Zr77    Zr   0.77965   0.92499   0.45564   1.000
    Zr78    Zr   0.07740   0.96608   0.46381   1.000
    Zr79    Zr   0.57739   0.96608   0.46381   1.000
    O80     O    0.87505   0.29079   0.00744   1.000
    O81     O    0.77454   0.28748   0.99291   1.000
    O82     O    0.37505   0.29078   0.00744   1.000
    O83     O    0.27454   0.28747   0.99291   1.000
    O84     O    0.50241   0.35200   0.99368   1.000
    O85     O    0.00242   0.35201   0.99368   1.000
    O86     O    0.34803   0.65132   0.02091   1.000
    O87     O    0.22539   0.71252   0.00709   1.000
    O88     O    0.84802   0.65133   0.02091   1.000
    O89     O    0.72538   0.71252   0.00708   1.000
    O90     O    0.42304   0.53447   0.02975   1.000
    O91     O    0.49973   0.60625   0.05505   1.000
    O92     O    0.35394   0.59145   0.05872   1.000
    O93     O    0.35158   0.58890   0.98933   1.000
    O94     O    0.49750   0.64798   0.00638   1.000
    O95     O    0.92304   0.53448   0.02975   1.000
    O96     O    0.99973   0.60625   0.05505   1.000
    O97     O    0.85394   0.59146   0.05875   1.000
    O98     O    0.85157   0.58891   0.98933   1.000
    O99     O    0.99750   0.64799   0.00639   1.000
    O100    O    0.87723   0.44973   0.04844   1.000
    O101    O    0.37723   0.44972   0.04845   1.000
    O102    O    0.77608   0.42918   0.05248   1.000
    O103    O    0.64832   0.41110   0.01081   1.000
    O104    O    0.27608   0.42917   0.05249   1.000
    O105    O    0.14832   0.41110   0.01081   1.000
    O106    O    0.62550   0.60334   0.09954   1.000
    O107    O    0.12550   0.60334   0.09954   1.000
    O108    O    0.22971   0.58854   0.10321   1.000
    O109    O    0.72971   0.58855   0.10323   1.000
    O110    O    0.27022   0.08844   0.39683   1.000
    O111    O    0.37441   0.10329   0.40050   1.000
    O112    O    0.77022   0.08844   0.39684   1.000
    O113    O    0.87441   0.10329   0.40050   1.000
    O114    O    0.14599   0.09137   0.44133   1.000
    O115    O    0.64599   0.09137   0.44133   1.000
    O116    O    0.00018   0.10622   0.44500   1.000
    O117    O    0.50017   0.10622   0.44500   1.000
    O118    O    0.72382   0.92915   0.44767   1.000
    O119    O    0.62269   0.94970   0.45175   1.000
    O120    O    0.22382   0.92915   0.44769   1.000
    O121    O    0.12270   0.94970   0.45179   1.000
    O122    O    0.35160   0.91107   0.48935   1.000
    O123    O    0.85159   0.91108   0.48936   1.000
    O124    O    0.57688   0.03444   0.47042   1.000
    O125    O    0.07689   0.03444   0.47042   1.000
    O126    O    0.15189   0.15129   0.47912   1.000
    O127    O    0.00241   0.14798   0.49365   1.000
    O128    O    0.14831   0.08890   0.51076   1.000
    O129    O    0.65188   0.15129   0.47912   1.000
    O130    O    0.50241   0.14798   0.49365   1.000
    O131    O    0.64830   0.08890   0.51076   1.000
    O132    O    0.27452   0.21250   0.49260   1.000
    O133    O    0.77452   0.21250   0.49291   1.000
    O134    O    0.62486   0.79083   0.49256   1.000
    O135    O    0.49750   0.85202   0.50639   1.000
    O136    O    0.12486   0.79082   0.49258   1.000
    O137    O    0.99751   0.85202   0.50641   1.000
    O138    O    0.72540   0.78748   0.50709   1.000
    O139    O    0.22540   0.78748   0.50710   1.000
    O140    O    0.37505   0.20919   0.50713   1.000
    O141    O    0.87504   0.20919   0.50743   1.000
    O142    O    0.34804   0.84867   0.52093   1.000
    O143    O    0.84804   0.84867   0.52093   1.000
    O144    O    0.92304   0.96552   0.52975   1.000
    O145    O    0.99981   0.89375   0.55508   1.000
    O146    O    0.85400   0.90854   0.55881   1.000
    O147    O    0.42304   0.96552   0.52975   1.000
    O148    O    0.49980   0.89375   0.55507   1.000
    O149    O    0.35401   0.90853   0.55882   1.000
    O150    O    0.87721   0.05028   0.54840   1.000
    O151    O    0.37721   0.05028   0.54840   1.000
    O152    O    0.77606   0.07083   0.55244   1.000
    O153    O    0.27606   0.07083   0.55245   1.000
    O154    O    0.62559   0.89666   0.59957   1.000
    O155    O    0.12560   0.89666   0.59958   1.000
    O156    O    0.72979   0.91144   0.60331   1.000
    O157    O    0.22980   0.91144   0.60332   1.000
    O158    O    0.77028   0.41153   0.89685   1.000
    O159    O    0.87448   0.39669   0.90050   1.000
    O160    O    0.27029   0.41155   0.89690   1.000
    O161    O    0.37448   0.39669   0.90055   1.000
    O162    O    0.64603   0.40861   0.94139   1.000
    O163    O    0.14604   0.40863   0.94139   1.000
    O164    O    0.00024   0.39377   0.94504   1.000
    O165    O    0.50023   0.39376   0.94504   1.000
    O166    O    0.72379   0.57082   0.94767   1.000
    O167    O    0.62267   0.55027   0.95176   1.000
    O168    O    0.22380   0.57082   0.94767   1.000
    O169    O    0.12268   0.55028   0.95176   1.000
    O170    O    0.57688   0.46553   0.97043   1.000
    O171    O    0.07689   0.46554   0.97043   1.000
    O172    O    0.65190   0.34869   0.97915   1.000
    O173    O    0.15191   0.34870   0.97915   1.000
    O174    O    0.62485   0.70918   0.99254   1.000
    O175    O    0.12487   0.70919   0.99257   1.000
    O176    O    0.00045   0.56837   0.99342   1.000
    O177    O    0.50045   0.56836   0.99342   1.000
    O178    O    0.49945   0.06834   0.50672   1.000
    O179    O    0.99946   0.06834   0.50672   1.000
    O180    O    0.49947   0.43165   0.00676   1.000
    O181    O    0.99947   0.43166   0.00676   1.000
    O182    O    0.00047   0.93162   0.49345   1.000
    O183    O    0.50047   0.93162   0.49345   1.000
    N184    N    0.62278   0.25997   0.72010   1.000
    O185    O    0.73459   0.17028   0.65256   1.000
    O186    O    0.47745   0.33052   0.79058   1.000
    N187    N    0.37697   0.74009   0.27999   1.000
    O188    O    0.26520   0.82975   0.34755   1.000
    O189    O    0.52237   0.66953   0.20951   1.000
    N190    N    0.37693   0.75990   0.77970   1.000
    O191    O    0.52235   0.83046   0.70939   1.000
    O192    O    0.26517   0.67023   0.84740   1.000
    N193    N    0.12263   0.25997   0.72010   1.000
    O194    O    0.97737   0.33052   0.79056   1.000
    O195    O    0.23452   0.17028   0.65255   1.000
    N196    N    0.99983   0.99998   0.99997   1.000
    O197    O    0.84323   0.88055   0.99198   1.000
    O198    O    0.15653   0.11942   0.00798   1.000
    N199    N    0.12268   0.24002   0.22007   1.000
    O200    O    0.97739   0.16947   0.29054   1.000
    O201    O    0.23456   0.32971   0.15257   1.000
    N202    N    0.49986   0.49999   0.49999   1.000
    O203    O    0.34325   0.61944   0.49200   1.000
    O204    O    0.65653   0.38055   0.50789   1.000
    N205    N    0.87698   0.74008   0.27999   1.000
    O206    O    0.76521   0.82975   0.34754   1.000
    O207    O    0.02237   0.66952   0.20951   1.000
    N208    N    0.99985   0.49999   0.49999   1.000
    O209    O    0.15653   0.38055   0.50784   1.000
    O210    O    0.84325   0.61944   0.49200   1.000
    N211    N    0.49990   0.00000   0.00001   1.000
    O212    O    0.34328   0.88057   0.99201   1.000
    O213    O    0.65656   0.11944   0.00800   1.000
    N214    N    0.62283   0.24002   0.22009   1.000
    O215    O    0.47746   0.16946   0.29055   1.000
    O216    O    0.73464   0.32971   0.15257   1.000
    N217    N    0.87694   0.75990   0.77998   1.000
    O218    O    0.02236   0.83046   0.70954   1.000
    O219    O    0.76517   0.67023   0.84754   1.000
loop_
    _geom_bond_atom_site_label_1
    _geom_bond_atom_site_label_2
    _geom_bond_distance
    _geom_bond_site_symmetry_2
    _ccdc_geom_bond_type
    Zr15   O80       0.63830      .   S
    Zr47   O80       0.63830      .   S
    Zr15   O81       0.63828  1_554   S
    Zr45   O81       0.63828      .   S
    Zr14   O82       0.63828      .   S
    Zr46   O82       0.63828      .   S
    Zr14   O83       0.63834  1_554   S
    Zr44   O83       0.63834      .   S
    Zr46   O84       1.23014  1_554   S
    Zr3    O84       1.23014      .   S
    Zr47   O85       1.23016  1_654   S
    Zr2    O85       1.23016      .   S
    Zr68   O86       1.20502      .   S
    Zr6    O86       1.20502      .   S
    Zr68   O87       0.63834      .   S
    Zr26   O87       0.63834  1_556   S
    Zr69   O88       1.20502      .   S
    Zr7    O88       1.20502      .   S
    Zr69   O89       0.63841      .   S
    Zr27   O89       0.63841  1_556   S
    Zr6    O90       1.29722      .   S
    Zr66   O90       1.29722      .   S
    Zr6    O91       1.20003      .   S
    Zr75   O91       1.20003      .   S
    Zr6    O92       1.23386      .   S
    Zr72   O92       1.23386      .   S
    Zr6    O93       1.23387  1_554   S
    Zr40   O93       1.23387      .   S
    Zr6    O94       1.23049      .   S
    Zr71   O94       1.23049  1_556   S
    Zr7    O95       1.29720      .   S
    Zr67   O95       1.29720      .   S
    Zr7    O96       1.20007      .   S
    Zr74   O96       1.20007  1_455   S
    Zr7    O97       1.23441      .   S
    Zr73   O97       1.23441      .   S
    Zr7    O98       1.23383  1_554   S
    Zr41   O98       1.23383      .   S
    Zr7    O99       1.23041      .   S
    Zr70   O99       1.23041  1_456   S
    Zr67   O100      0.65014      .   S
    Zr25   O100      0.65014      .   S
    Zr66   O101      0.65018      .   S
    Zr24   O101      0.65018      .   S
    Zr65   O102      0.62952      .   S
    Zr25   O102      0.62952      .   S
    Zr65   O103      1.23389      .   S
    Zr3    O103      1.23389  1_556   S
    Zr64   O104      0.62953      .   S
    Zr24   O104      0.62953      .   S
    Zr64   O105      1.23391      .   S
    Zr2    O105      1.23391  1_556   S
    Zr75   O106      0.63659      .   S
    Zr29   O106      0.63659      .   S
    Zr74   O107      0.63657      .   S
    Zr28   O107      0.63657      .   S
    Zr72   O108      0.63569      .   S
    Zr28   O108      0.63569      .   S
    Zr73   O109      0.63543      .   S
    Zr29   O109      0.63543      .   S
    Zr22   O110      0.63544      .   S
    Zr60   O110      0.63544      .   S
    Zr22   O111      0.63665      .   S
    Zr62   O111      0.63665      .   S
    Zr23   O112      0.63544      .   S
    Zr61   O112      0.63544      .   S
    Zr23   O113      0.63658      .   S
    Zr63   O113      0.63658      .   S
    Zr60   O114      1.23476      .   S
    Zr4    O114      1.23476      .   S
    Zr61   O115      1.23471      .   S
    Zr5    O115      1.23471      .   S
    Zr63   O116      1.20045  1_655   S
    Zr4    O116      1.20045      .   S
    Zr62   O117      1.20040      .   S
    Zr5    O117      1.20040      .   S
    Zr31   O118      0.62984      .   S
    Zr77   O118      0.62984      .   S
    Zr31   O119      0.65069      .   S
    Zr79   O119      0.65069      .   S
    Zr30   O120      0.62949      .   S
    Zr76   O120      0.62949      .   S
    Zr30   O121      0.65026      .   S
    Zr78   O121      0.65026      .   S
    Zr76   O122      1.23380      .   S
    Zr0    O122      1.23380      .   S
    Zr77   O123      1.23371      .   S
    Zr1    O123      1.23371      .   S
    Zr79   O124      1.29691  1_565   S
    Zr5    O124      1.29691      .   S
    Zr78   O125      1.29690  1_565   S
    Zr4    O125      1.29690      .   S
    Zr4    O126      1.20518      .   S
    Zr56   O126      1.20518      .   S
    Zr4    O127      1.22998      .   S
    Zr59   O127      1.22998  1_655   S
    Zr4    O128      1.23390      .   S
    Zr52   O128      1.23390      .   S
    Zr5    O129      1.20520      .   S
    Zr57   O129      1.20520      .   S
    Zr5    O130      1.22991      .   S
    Zr58   O130      1.22991      .   S
    Zr5    O131      1.23385      .   S
    Zr53   O131      1.23385      .   S
    Zr56   O132      0.63423      .   S
    Zr20   O132      0.63423      .   S
    Zr57   O133      0.63838      .   S
    Zr21   O133      0.63838      .   S
    Zr35   O134      0.63839      .   S
    Zr9    O134      0.63839      .   S
    Zr35   O135      1.23032      .   S
    Zr0    O135      1.23032      .   S
    Zr34   O136      0.63830      .   S
    Zr8    O136      0.63830      .   S
    Zr34   O137      1.23009  1_455   S
    Zr1    O137      1.23009      .   S
    Zr9    O138      0.63833      .   S
    Zr33   O138      0.63833      .   S
    Zr8    O139      0.63831      .   S
    Zr32   O139      0.63831      .   S
    Zr20   O140      0.63946      .   S
    Zr58   O140      0.63946      .   S
    Zr21   O141      0.63829      .   S
    Zr59   O141      0.63829      .   S
    Zr32   O142      1.20516      .   S
    Zr0    O142      1.20516      .   S
    Zr33   O143      1.20517      .   S
    Zr1    O143      1.20517      .   S
    Zr1    O144      1.29711      .   S
    Zr55   O144      1.29711  1_545   S
    Zr1    O145      1.20035      .   S
    Zr38   O145      1.20035  1_455   S
    Zr1    O146      1.23487      .   S
    Zr37   O146      1.23487      .   S
    Zr0    O147      1.29714      .   S
    Zr54   O147      1.29714  1_545   S
    Zr0    O148      1.20020      .   S
    Zr39   O148      1.20020      .   S
    Zr0    O149      1.23493      .   S
    Zr36   O149      1.23493      .   S
    Zr55   O150      0.65016      .   S
    Zr19   O150      0.65016      .   S
    Zr54   O151      0.65013      .   S
    Zr18   O151      0.65013      .   S
    Zr53   O152      0.62953      .   S
    Zr19   O152      0.62953      .   S
    Zr52   O153      0.62949      .   S
    Zr18   O153      0.62949      .   S
    Zr39   O154      0.63662      .   S
    Zr11   O154      0.63662      .   S
    Zr38   O155      0.63660      .   S
    Zr10   O155      0.63660      .   S
    Zr37   O156      0.63540      .   S
    Zr11   O156      0.63540      .   S
    Zr36   O157      0.63541      .   S
    Zr10   O157      0.63541      .   S
    Zr17   O158      0.63584      .   S
    Zr49   O158      0.63584      .   S
    Zr17   O159      0.63734      .   S
    Zr51   O159      0.63734      .   S
    Zr16   O160      0.63544      .   S
    Zr48   O160      0.63544      .   S
    Zr16   O161      0.63664      .   S
    Zr50   O161      0.63664      .   S
    Zr49   O162      1.23472      .   S
    Zr3    O162      1.23472      .   S
    Zr48   O163      1.23463      .   S
    Zr2    O163      1.23463      .   S
    Zr51   O164      1.20034  1_655   S
    Zr2    O164      1.20034      .   S
    Zr50   O165      1.20030      .   S
    Zr3    O165      1.20030      .   S
    Zr13   O166      0.62950      .   S
    Zr41   O166      0.62950      .   S
    Zr13   O167      0.65023      .   S
    Zr43   O167      0.65023      .   S
    Zr12   O168      0.62944      .   S
    Zr40   O168      0.62944      .   S
    Zr12   O169      0.65019      .   S
    Zr42   O169      0.65019      .   S
    Zr43   O170      1.29694      .   S
    Zr3    O170      1.29694      .   S
    Zr42   O171      1.29695      .   S
    Zr2    O171      1.29695      .   S
    Zr3    O172      1.20507      .   S
    Zr45   O172      1.20507      .   S
    Zr2    O173      1.20506      .   S
    Zr44   O173      1.20506      .   S
    Zr71   O174      0.63833      .   S
    Zr27   O174      0.63833      .   S
    Zr70   O175      0.63828      .   S
    Zr26   O175      0.63828      .   S
    Zr42   O176      1.30853      .   S
    Zr7    O176      1.30853  1_654   S
    Zr43   O177      1.30852      .   S
    Zr6    O177      1.30852  1_554   S
    Zr54   O178      1.30935      .   S
    Zr5    O178      1.30935      .   S
    Zr55   O179      1.30940      .   S
    Zr4    O179      1.30940  1_455   S
    Zr66   O180      1.30926      .   S
    Zr3    O180      1.30926  1_556   S
    Zr67   O181      1.30931      .   S
    Zr2    O181      1.30931  1_456   S
    Zr78   O182      1.30854      .   S
    Zr1    O182      1.30854  1_655   S
    Zr79   O183      1.30852      .   S
    Zr0    O183      1.30852      .   S
    N184   O185      2.75967      .   S
    Zr19   O185      3.35173      .   S
    N184   O186      2.78484      .   S
    Zr16   O186      3.39421      .   S
    N187   O188      2.75970      .   S
    Zr30   O188      3.35176      .   S
    N187   O189      2.78507      .   S
    Zr29   O189      3.39451      .   S
    N190   O191      2.78224      .   S
    Zr11   O191      3.39141      .   S
    N190   O192      2.76245      .   S
    Zr12   O192      3.35488      .   S
    N193   O194      2.78396  1_455   S
    Zr17   O194      3.39233      .   S
    N193   O195      2.76028      .   S
    Zr18   O195      3.35174      .   S
    N196   O197      2.78417      .   S
    Zr27   O197      3.38617      .   S
    N196   O198      2.78476  1_666   S
    Zr14   O198      3.38697      .   S
    N199   O200      2.78466  1_455   S
    Zr23   O200      3.39415      .   S
    N199   O201      2.75959      .   S
    Zr24   O201      3.35138      .   S
    N202   O203      2.78412      .   S
    Zr8    O203      3.38611      .   S
    N202   O204      2.78424      .   S
    Zr21   O204      3.38651      .   S
    N205   O206      2.75947      .   S
    Zr31   O206      3.35077      .   S
    N205   O207      2.78511  1_655   S
    Zr28   O207      3.39457      .   S
    N208   O209      2.78415  1_655   S
    Zr20   O209      3.38689      .   S
    N208   O210      2.78412      .   S
    Zr9    O210      3.38609      .   S
    N211   O212      2.78437  1_544   S
    Zr26   O212      3.38644      .   S
    N211   O213      2.78452      .   S
    Zr15   O213      3.38666      .   S
    N214   O215      2.78481      .   S
    Zr22   O215      3.39420      .   S
    N214   O216      2.75948      .   S
    Zr25   O216      3.35151      .   S
    N217   O218      2.78483  1_655   S
    Zr10   O218      3.39436      .   S
    N217   O219      2.75993      .   S
    Zr13   O219      3.35192      .   S
