# CIF file generated by openbabel 2.4.90, see http://openbabel.sf.net
data_I
_chemical_name_common ''
_cell_length_a 10.412
_cell_length_b 18.782
_cell_length_c 27.669
_cell_angle_alpha 90.002
_cell_angle_beta 89.095
_cell_angle_gamma 89.994
_space_group_name_H-M_alt 'P 1'
_space_group_name_Hall 'P 1'
loop_
    _symmetry_equiv_pos_as_xyz
    x,y,z
loop_
    _atom_site_label
    _atom_site_type_symbol
    _atom_site_fract_x
    _atom_site_fract_y
    _atom_site_fract_z
    _atom_site_occupancy
    C0      C    0.42354   0.89716   0.52308   1.000
    C1      C    0.92354   0.89716   0.52308   1.000
    C2      C    0.07640   0.39719   0.97708   1.000
    C3      C    0.57638   0.39718   0.97708   1.000
    C4      C    0.07637   0.10280   0.47703   1.000
    C5      C    0.57636   0.10281   0.47703   1.000
    C6      C    0.42352   0.60283   0.02305   1.000
    C7      C    0.92352   0.60284   0.02305   1.000
    C8      C    0.35661   0.67539   0.51664   1.000
    C9      C    0.85663   0.67540   0.51660   1.000
    C10     C    0.24168   0.51660   0.41374   1.000
    C11     C    0.74168   0.51661   0.41372   1.000
    C12     C    0.06717   0.59757   0.38564   1.000
    C13     C    0.56715   0.59758   0.38563   1.000
    C14     C    0.03647   0.71583   0.42401   1.000
    C15     C    0.53645   0.71583   0.42401   1.000
    C16     C    0.99579   0.82949   0.66444   1.000
    C17     C    0.49577   0.82949   0.66443   1.000
    C18     C    0.12304   0.89027   0.80602   1.000
    C19     C    0.62304   0.89025   0.80601   1.000
    C20     C    0.29469   0.96524   0.76843   1.000
    C21     C    0.79471   0.96522   0.76842   1.000
    C22     C    0.32199   0.96770   0.67860   1.000
    C23     C    0.82201   0.96768   0.67861   1.000
    C24     C    0.29942   0.66708   0.88956   1.000
    C25     C    0.79943   0.66708   0.88956   1.000
    C26     C    0.08517   0.65567   0.75000   1.000
    C27     C    0.58517   0.65569   0.75800   1.000
    C28     C    0.43732   0.56670   0.79638   1.000
    C29     C    0.93731   0.56669   0.79637   1.000
    C30     C    0.47141   0.52872   0.88154   1.000
    C31     C    0.97140   0.52872   0.88154   1.000
    C32     C    0.14321   0.17544   0.98332   1.000
    C33     C    0.64325   0.17542   0.98335   1.000
    C34     C    0.25787   0.01657   0.08620   1.000
    C35     C    0.75795   0.01661   0.08629   1.000
    C36     C    0.43245   0.09746   0.11436   1.000
    C37     C    0.93250   0.09753   0.11441   1.000
    C38     C    0.46331   0.21571   0.07600   1.000
    C39     C    0.96333   0.21576   0.07603   1.000
    C40     C    0.50402   0.32953   0.83566   1.000
    C41     C    0.00000   0.32952   0.83566   1.000
    C42     C    0.37657   0.39038   0.69412   1.000
    C43     C    0.87657   0.39038   0.69412   1.000
    C44     C    0.20491   0.46532   0.73170   1.000
    C45     C    0.70491   0.46531   0.73177   1.000
    C46     C    0.17773   0.46774   0.82159   1.000
    C47     C    0.67773   0.46773   0.82159   1.000
    C48     C    0.20034   0.16713   0.61052   1.000
    C49     C    0.70034   0.16714   0.61052   1.000
    C50     C    0.41453   0.15576   0.74210   1.000
    C51     C    0.91451   0.15577   0.74210   1.000
    C52     C    0.06241   0.06676   0.70375   1.000
    C53     C    0.56242   0.06676   0.70375   1.000
    C54     C    0.02836   0.02876   0.61850   1.000
    C55     C    0.52836   0.02876   0.61858   1.000
    C56     C    0.14321   0.32456   0.48330   1.000
    C57     C    0.64319   0.32456   0.48336   1.000
    C58     C    0.25790   0.48338   0.58627   1.000
    C59     C    0.75791   0.48337   0.58628   1.000
    C60     C    0.43244   0.40245   0.61440   1.000
    C61     C    0.93246   0.40244   0.61440   1.000
    C62     C    0.46330   0.28421   0.57602   1.000
    C63     C    0.96332   0.28420   0.57601   1.000
    C64     C    0.50400   0.17046   0.33562   1.000
    C65     C    0.00000   0.17046   0.33563   1.000
    C66     C    0.37667   0.10963   0.19406   1.000
    C67     C    0.87667   0.10963   0.19407   1.000
    C68     C    0.20504   0.03467   0.23169   1.000
    C69     C    0.70503   0.03468   0.23169   1.000
    C70     C    0.17779   0.03224   0.32150   1.000
    C71     C    0.67779   0.03224   0.32150   1.000
    C72     C    0.20041   0.33287   0.11054   1.000
    C73     C    0.70042   0.33286   0.11053   1.000
    C74     C    0.41455   0.34421   0.24213   1.000
    C75     C    0.91455   0.34420   0.24213   1.000
    C76     C    0.06244   0.43321   0.20379   1.000
    C77     C    0.56244   0.43321   0.20379   1.000
    C78     C    0.02839   0.47123   0.11863   1.000
    C79     C    0.52839   0.47122   0.11863   1.000
    C80     C    0.35664   0.82459   0.01665   1.000
    C81     C    0.85660   0.82460   0.01661   1.000
    C82     C    0.24174   0.98342   0.91376   1.000
    C83     C    0.74166   0.98337   0.91369   1.000
    C84     C    0.06720   0.90248   0.88566   1.000
    C85     C    0.56714   0.90241   0.88561   1.000
    C86     C    0.03647   0.78423   0.92402   1.000
    C87     C    0.53645   0.78417   0.92399   1.000
    C88     C    0.99579   0.67050   0.16441   1.000
    C89     C    0.49578   0.67051   0.16440   1.000
    C90     C    0.12313   0.60969   0.30597   1.000
    C91     C    0.62313   0.60971   0.30597   1.000
    C92     C    0.29481   0.53474   0.26835   1.000
    C93     C    0.79482   0.53475   0.26835   1.000
    C94     C    0.32207   0.53230   0.17854   1.000
    C95     C    0.82207   0.53231   0.17854   1.000
    C96     C    0.29947   0.83289   0.38956   1.000
    C97     C    0.79948   0.83289   0.38957   1.000
    C98     C    0.08517   0.84432   0.25801   1.000
    C99     C    0.58518   0.84431   0.25802   1.000
    C100    C    0.43733   0.93330   0.29640   1.000
    C101    C    0.93731   0.93331   0.29640   1.000
    C102    C    0.47143   0.97127   0.38157   1.000
    C103    C    0.97142   0.97127   0.38150   1.000
    C104    C    0.17825   0.77477   0.49542   1.000
    C105    C    0.67825   0.77477   0.49541   1.000
    C106    C    0.19503   0.70299   0.47262   1.000
    C107    C    0.69503   0.70300   0.47261   1.000
    C108    C    0.29327   0.65800   0.48808   1.000
    C109    C    0.79327   0.65800   0.48808   1.000
    C110    C    0.30973   0.59041   0.46734   1.000
    C111    C    0.80973   0.59042   0.46733   1.000
    C112    C    0.22848   0.56910   0.42977   1.000
    C113    C    0.72845   0.56910   0.42977   1.000
    C114    C    0.13148   0.61434   0.41417   1.000
    C115    C    0.63148   0.61436   0.41416   1.000
    C116    C    0.11347   0.68088   0.43566   1.000
    C117    C    0.61346   0.68089   0.43565   1.000
    C118    C    0.41068   0.54232   0.48478   1.000
    C119    C    0.91067   0.54233   0.48477   1.000
    C120    C    0.17513   0.90298   0.61208   1.000
    C121    C    0.67512   0.90298   0.61207   1.000
    C122    C    0.16044   0.89907   0.66611   1.000
    C123    C    0.66043   0.89907   0.66610   1.000
    C124    C    0.06216   0.85835   0.68724   1.000
    C125    C    0.56215   0.85834   0.68723   1.000
    C126    C    0.04960   0.85406   0.73776   1.000
    C127    C    0.54958   0.85406   0.73776   1.000
    C128    C    0.13345   0.89347   0.76600   1.000
    C129    C    0.63345   0.89345   0.76689   1.000
    C130    C    0.22966   0.93507   0.74569   1.000
    C131    C    0.72967   0.93505   0.74569   1.000
    C132    C    0.24500   0.93693   0.69551   1.000
    C133    C    0.74501   0.93692   0.69551   1.000
    C134    C    0.44975   0.80885   0.76017   1.000
    C135    C    0.94976   0.80885   0.76018   1.000
    C136    C    0.28500   0.72240   0.79979   1.000
    C137    C    0.78501   0.72239   0.79980   1.000
    C138    C    0.16797   0.56666   0.93974   1.000
    C139    C    0.66796   0.56666   0.93974   1.000
    C140    C    0.13884   0.59447   0.89046   1.000
    C141    C    0.63884   0.59447   0.89047   1.000
    C142    C    0.21948   0.64570   0.86930   1.000
    C143    C    0.71950   0.64569   0.86930   1.000
    C144    C    0.19917   0.66884   0.82188   1.000
    C145    C    0.69916   0.66885   0.82189   1.000
    C146    C    0.09826   0.63897   0.79530   1.000
    C147    C    0.59828   0.63897   0.79531   1.000
    C148    C    0.01628   0.58915   0.81681   1.000
    C149    C    0.51627   0.58916   0.81681   1.000
    C150    C    0.03495   0.56754   0.86440   1.000
    C151    C    0.53496   0.56754   0.86447   1.000
    C152    C    0.32165   0.27474   0.00460   1.000
    C153    C    0.82165   0.27475   0.00460   1.000
    C154    C    0.30478   0.20296   0.02737   1.000
    C155    C    0.80480   0.20298   0.02740   1.000
    C156    C    0.20650   0.15801   0.01180   1.000
    C157    C    0.70655   0.15801   0.01192   1.000
    C158    C    0.18996   0.09042   0.03262   1.000
    C159    C    0.69003   0.09044   0.03267   1.000
    C160    C    0.27117   0.06906   0.07019   1.000
    C161    C    0.77124   0.06910   0.07020   1.000
    C162    C    0.36818   0.11427   0.08582   1.000
    C163    C    0.86821   0.11433   0.08587   1.000
    C164    C    0.38628   0.18080   0.06434   1.000
    C165    C    0.88630   0.18085   0.06438   1.000
    C166    C    0.08897   0.04237   0.01518   1.000
    C167    C    0.58908   0.04236   0.01522   1.000
    C168    C    0.32489   0.40304   0.88809   1.000
    C169    C    0.82488   0.40303   0.88800   1.000
    C170    C    0.33935   0.39911   0.83405   1.000
    C171    C    0.83934   0.39910   0.83405   1.000
    C172    C    0.43760   0.35840   0.81288   1.000
    C173    C    0.93760   0.35839   0.81289   1.000
    C174    C    0.45010   0.35413   0.76230   1.000
    C175    C    0.95011   0.35413   0.76236   1.000
    C176    C    0.36620   0.39355   0.73325   1.000
    C177    C    0.86621   0.39355   0.73325   1.000
    C178    C    0.26998   0.43513   0.75449   1.000
    C179    C    0.76998   0.43512   0.75449   1.000
    C180    C    0.25471   0.43698   0.80467   1.000
    C181    C    0.75471   0.43697   0.80467   1.000
    C182    C    0.04994   0.30893   0.73992   1.000
    C183    C    0.54993   0.30893   0.73992   1.000
    C184    C    0.21470   0.22247   0.70029   1.000
    C185    C    0.71469   0.22248   0.70029   1.000
    C186    C    0.33188   0.06667   0.56039   1.000
    C187    C    0.83188   0.06668   0.56039   1.000
    C188    C    0.36093   0.09451   0.60960   1.000
    C189    C    0.86093   0.09451   0.60965   1.000
    C190    C    0.28027   0.14575   0.63079   1.000
    C191    C    0.78026   0.14576   0.63079   1.000
    C192    C    0.30057   0.16892   0.67821   1.000
    C193    C    0.80056   0.16893   0.67820   1.000
    C194    C    0.40146   0.13905   0.70480   1.000
    C195    C    0.90144   0.13905   0.70479   1.000
    C196    C    0.48347   0.08922   0.68331   1.000
    C197    C    0.98346   0.08922   0.68331   1.000
    C198    C    0.46482   0.06758   0.63566   1.000
    C199    C    0.96480   0.06758   0.63566   1.000
    C200    C    0.32165   0.22523   0.50400   1.000
    C201    C    0.82164   0.22522   0.50460   1.000
    C202    C    0.30478   0.29700   0.52739   1.000
    C203    C    0.80477   0.29699   0.52700   1.000
    C204    C    0.20652   0.34197   0.51190   1.000
    C205    C    0.70652   0.34197   0.51191   1.000
    C206    C    0.18998   0.40955   0.53265   1.000
    C207    C    0.68998   0.40955   0.53266   1.000
    C208    C    0.27119   0.43089   0.57023   1.000
    C209    C    0.77121   0.43089   0.57023   1.000
    C210    C    0.36818   0.38566   0.58585   1.000
    C211    C    0.86818   0.38565   0.58586   1.000
    C212    C    0.38627   0.31913   0.56436   1.000
    C213    C    0.88628   0.31912   0.56437   1.000
    C214    C    0.08900   0.45762   0.51521   1.000
    C215    C    0.58900   0.45762   0.51520   1.000
    C216    C    0.32483   0.09695   0.38803   1.000
    C217    C    0.82483   0.09695   0.38804   1.000
    C218    C    0.33935   0.10087   0.33399   1.000
    C219    C    0.83935   0.10088   0.33400   1.000
    C220    C    0.43762   0.14159   0.31284   1.000
    C221    C    0.93761   0.14159   0.31284   1.000
    C222    C    0.45015   0.14586   0.26231   1.000
    C223    C    0.95015   0.14586   0.26232   1.000
    C224    C    0.36629   0.10644   0.23319   1.000
    C225    C    0.86629   0.10644   0.23320   1.000
    C226    C    0.27007   0.06486   0.25441   1.000
    C227    C    0.77006   0.06487   0.25442   1.000
    C228    C    0.25477   0.06301   0.30459   1.000
    C229    C    0.75476   0.06301   0.30460   1.000
    C230    C    0.04998   0.19106   0.23990   1.000
    C231    C    0.54998   0.19106   0.23989   1.000
    C232    C    0.21475   0.27752   0.20030   1.000
    C233    C    0.71476   0.27751   0.20029   1.000
    C234    C    0.33190   0.43333   0.06044   1.000
    C235    C    0.83191   0.43333   0.06043   1.000
    C236    C    0.36098   0.40548   0.10969   1.000
    C237    C    0.86098   0.40549   0.10969   1.000
    C238    C    0.28033   0.35423   0.13082   1.000
    C239    C    0.78033   0.35424   0.13081   1.000
    C240    C    0.30062   0.33107   0.17823   1.000
    C241    C    0.80063   0.33106   0.17822   1.000
    C242    C    0.40151   0.36092   0.20482   1.000
    C243    C    0.90149   0.36093   0.20482   1.000
    C244    C    0.48350   0.41076   0.18335   1.000
    C245    C    0.98349   0.41076   0.18334   1.000
    C246    C    0.46486   0.43240   0.13500   1.000
    C247    C    0.96485   0.43241   0.13569   1.000
    C248    C    0.17825   0.72524   0.99541   1.000
    C249    C    0.67824   0.72523   0.99539   1.000
    C250    C    0.19504   0.79702   0.97263   1.000
    C251    C    0.69503   0.79700   0.97259   1.000
    C252    C    0.29331   0.84199   0.98809   1.000
    C253    C    0.79327   0.84199   0.98805   1.000
    C254    C    0.30977   0.90958   0.96735   1.000
    C255    C    0.80971   0.90957   0.96730   1.000
    C256    C    0.22852   0.93092   0.92979   1.000
    C257    C    0.72844   0.93088   0.92974   1.000
    C258    C    0.13151   0.88569   0.91419   1.000
    C259    C    0.63148   0.88563   0.91413   1.000
    C260    C    0.11349   0.81915   0.93567   1.000
    C261    C    0.61346   0.81911   0.93563   1.000
    C262    C    0.41075   0.95765   0.98479   1.000
    C263    C    0.91065   0.95766   0.98470   1.000
    C264    C    0.17506   0.59701   0.11202   1.000
    C265    C    0.67506   0.59702   0.11202   1.000
    C266    C    0.16046   0.60092   0.16605   1.000
    C267    C    0.66046   0.60093   0.16605   1.000
    C268    C    0.06219   0.64165   0.18720   1.000
    C269    C    0.56217   0.64165   0.18720   1.000
    C270    C    0.04963   0.64591   0.23773   1.000
    C271    C    0.54963   0.64593   0.23772   1.000
    C272    C    0.13353   0.60651   0.26684   1.000
    C273    C    0.63352   0.60652   0.26684   1.000
    C274    C    0.22975   0.56491   0.24562   1.000
    C275    C    0.72976   0.56493   0.24560   1.000
    C276    C    0.24507   0.56306   0.19540   1.000
    C277    C    0.74507   0.56307   0.19545   1.000
    C278    C    0.44979   0.69113   0.26015   1.000
    C279    C    0.94979   0.69112   0.26015   1.000
    C280    C    0.28504   0.77759   0.29979   1.000
    C281    C    0.78505   0.77758   0.29979   1.000
    C282    C    0.16799   0.93331   0.43976   1.000
    C283    C    0.66799   0.93331   0.43970   1.000
    C284    C    0.13888   0.90552   0.39048   1.000
    C285    C    0.63887   0.90552   0.39049   1.000
    C286    C    0.21952   0.85429   0.36931   1.000
    C287    C    0.71953   0.85429   0.36931   1.000
    C288    C    0.19919   0.83115   0.32189   1.000
    C289    C    0.69920   0.83114   0.32190   1.000
    C290    C    0.09828   0.86102   0.29532   1.000
    C291    C    0.59829   0.86102   0.29532   1.000
    C292    C    0.01630   0.91085   0.31683   1.000
    C293    C    0.51629   0.91084   0.31680   1.000
    C294    C    0.03498   0.93246   0.36449   1.000
    C295    C    0.53498   0.93245   0.36449   1.000
    C296    C    0.43045   0.48037   0.46062   1.000
    C297    C    0.93037   0.48035   0.46063   1.000
    C298    C    0.47831   0.56278   0.52390   1.000
    C299    C    0.97831   0.56279   0.52389   1.000
    C300    C    0.37106   0.77187   0.73066   1.000
    C301    C    0.87109   0.77185   0.73066   1.000
    C302    C    0.28664   0.72802   0.75090   1.000
    C303    C    0.78665   0.72802   0.75092   1.000
    C304    C    0.35391   0.76474   0.82937   1.000
    C305    C    0.85394   0.76473   0.82938   1.000
    C306    C    0.43778   0.80911   0.80903   1.000
    C307    C    0.93780   0.80910   0.80904   1.000
    C308    C    0.06923   0.98040   0.03933   1.000
    C309    C    0.56939   0.98037   0.03930   1.000
    C310    C    0.02128   0.06285   0.97607   1.000
    C311    C    0.52146   0.06281   0.97609   1.000
    C312    C    0.12869   0.27196   0.76943   1.000
    C313    C    0.62867   0.27197   0.76943   1.000
    C314    C    0.21313   0.22813   0.74917   1.000
    C315    C    0.71310   0.22812   0.74916   1.000
    C316    C    0.14572   0.26479   0.67072   1.000
    C317    C    0.64569   0.26479   0.67071   1.000
    C318    C    0.06187   0.30917   0.69100   1.000
    C319    C    0.56183   0.30917   0.69106   1.000
    C320    C    0.06928   0.51959   0.53930   1.000
    C321    C    0.56934   0.51961   0.53934   1.000
    C322    C    0.02133   0.43715   0.47610   1.000
    C323    C    0.52133   0.43715   0.47611   1.000
    C324    C    0.12871   0.22801   0.26942   1.000
    C325    C    0.62871   0.22800   0.26941   1.000
    C326    C    0.21315   0.27185   0.24917   1.000
    C327    C    0.71310   0.27187   0.24910   1.000
    C328    C    0.14582   0.23520   0.17071   1.000
    C329    C    0.64585   0.23518   0.17070   1.000
    C330    C    0.06195   0.19082   0.19104   1.000
    C331    C    0.56190   0.19084   0.19103   1.000
    C332    C    0.43046   0.01963   0.96064   1.000
    C333    C    0.93030   0.01966   0.96062   1.000
    C334    C    0.47849   0.93716   0.02388   1.000
    C335    C    0.97829   0.93720   0.02387   1.000
    C336    C    0.37105   0.72810   0.23060   1.000
    C337    C    0.87109   0.72812   0.23065   1.000
    C338    C    0.28663   0.77195   0.25091   1.000
    C339    C    0.78666   0.77196   0.25092   1.000
    C340    C    0.35395   0.73523   0.32936   1.000
    C341    C    0.85401   0.73525   0.32936   1.000
    C342    C    0.43784   0.69086   0.30901   1.000
    C343    C    0.93786   0.69087   0.30901   1.000
    C344    C    0.27254   0.80019   0.51878   1.000
    C345    C    0.77254   0.80019   0.51878   1.000
    C346    C    0.07147   0.80688   0.48975   1.000
    C347    C    0.57147   0.80688   0.48970   1.000
    C348    C    0.28447   0.91991   0.59456   1.000
    C349    C    0.78446   0.91991   0.59455   1.000
    C350    C    0.07608   0.89034   0.58708   1.000
    C351    C    0.57606   0.89034   0.58707   1.000
    C352    C    0.27963   0.57498   0.95560   1.000
    C353    C    0.77962   0.57497   0.95561   1.000
    C354    C    0.07738   0.53390   0.96378   1.000
    C355    C    0.57738   0.53389   0.96378   1.000
    C356    C    0.22742   0.30021   0.98122   1.000
    C357    C    0.72742   0.30020   0.98122   1.000
    C358    C    0.42844   0.30682   0.01028   1.000
    C359    C    0.92845   0.30683   0.01028   1.000
    C360    C    0.21569   0.42007   0.90571   1.000
    C361    C    0.71567   0.42004   0.90570   1.000
    C362    C    0.42408   0.39035   0.91301   1.000
    C363    C    0.92408   0.39035   0.91301   1.000
    C364    C    0.22024   0.07499   0.54450   1.000
    C365    C    0.72024   0.07499   0.54449   1.000
    C366    C    0.42254   0.03388   0.53641   1.000
    C367    C    0.92254   0.03388   0.53641   1.000
    C368    C    0.22740   0.19978   0.48120   1.000
    C369    C    0.72740   0.19978   0.48121   1.000
    C370    C    0.42846   0.19315   0.51026   1.000
    C371    C    0.92845   0.19315   0.51026   1.000
    C372    C    0.21561   0.07993   0.40563   1.000
    C373    C    0.71562   0.07993   0.40564   1.000
    C374    C    0.42399   0.10963   0.41297   1.000
    C375    C    0.92399   0.10963   0.41297   1.000
    C376    C    0.22025   0.42502   0.04455   1.000
    C377    C    0.72026   0.42502   0.04454   1.000
    C378    C    0.42255   0.46611   0.03645   1.000
    C379    C    0.92255   0.46613   0.03645   1.000
    C380    C    0.27253   0.69981   0.01878   1.000
    C381    C    0.77252   0.69981   0.01878   1.000
    C382    C    0.07148   0.69314   0.98973   1.000
    C383    C    0.57147   0.69313   0.98970   1.000
    C384    C    0.28436   0.58007   0.09440   1.000
    C385    C    0.78436   0.58008   0.09445   1.000
    C386    C    0.07595   0.60966   0.08706   1.000
    C387    C    0.57593   0.60966   0.08706   1.000
    C388    C    0.27965   0.92499   0.45563   1.000
    C389    C    0.77965   0.92499   0.45564   1.000
    C390    C    0.07740   0.96608   0.46381   1.000
    C391    C    0.57739   0.96608   0.46381   1.000
    O392    O    0.87505   0.29079   0.00744   1.000
    O393    O    0.81323   0.23887   0.01600   1.000
    O394    O    0.77454   0.28748   0.99291   1.000
    O395    O    0.37505   0.29078   0.00744   1.000
    O396    O    0.31322   0.23885   0.01598   1.000
    O397    O    0.27454   0.28747   0.99291   1.000
    O398    O    0.50241   0.35200   0.99368   1.000
    O399    O    0.00242   0.35201   0.99368   1.000
    O400    O    0.25564   0.18048   0.01959   1.000
    O401    O    0.19823   0.12422   0.02221   1.000
    O402    O    0.17486   0.16672   0.99756   1.000
    O403    O    0.75567   0.18050   0.01966   1.000
    O404    O    0.69829   0.12422   0.02229   1.000
    O405    O    0.67490   0.16672   0.99763   1.000
    O406    O    0.13946   0.06640   0.02390   1.000
    O407    O    0.07910   0.01138   0.02725   1.000
    O408    O    0.05512   0.05261   0.99562   1.000
    O409    O    0.63955   0.06640   0.02394   1.000
    O410    O    0.57923   0.01136   0.02726   1.000
    O411    O    0.55527   0.05259   0.99565   1.000
    O412    O    0.82493   0.83330   0.00233   1.000
    O413    O    0.32498   0.83329   0.00237   1.000
    O414    O    0.34803   0.65132   0.02091   1.000
    O415    O    0.22539   0.71252   0.00709   1.000
    O416    O    0.84802   0.65133   0.02091   1.000
    O417    O    0.72538   0.71252   0.00708   1.000
    O418    O    0.42304   0.53447   0.02975   1.000
    O419    O    0.49973   0.60625   0.05505   1.000
    O420    O    0.35394   0.59145   0.05872   1.000
    O421    O    0.35158   0.58890   0.98933   1.000
    O422    O    0.49750   0.64798   0.00638   1.000
    O423    O    0.92304   0.53448   0.02975   1.000
    O424    O    0.99973   0.60625   0.05505   1.000
    O425    O    0.85394   0.59146   0.05875   1.000
    O426    O    0.85157   0.58891   0.98933   1.000
    O427    O    0.99750   0.64799   0.00639   1.000
    O428    O    0.02376   0.95880   0.03160   1.000
    O429    O    0.94447   0.94743   0.00429   1.000
    O430    O    0.52394   0.95876   0.03159   1.000
    O431    O    0.44462   0.94740   0.00434   1.000
    O432    O    0.34553   0.19188   0.04585   1.000
    O433    O    0.84555   0.19192   0.04589   1.000
    O434    O    0.23056   0.07974   0.05141   1.000
    O435    O    0.73064   0.07977   0.05144   1.000
    O436    O    0.87723   0.44973   0.04844   1.000
    O437    O    0.37723   0.44972   0.04845   1.000
    O438    O    0.77608   0.42918   0.05248   1.000
    O439    O    0.64832   0.41110   0.01081   1.000
    O440    O    0.27608   0.42917   0.05249   1.000
    O441    O    0.14832   0.41110   0.01081   1.000
    O442    O    0.84644   0.41941   0.08506   1.000
    O443    O    0.34644   0.41941   0.08507   1.000
    O444    O    0.42480   0.19825   0.07017   1.000
    O445    O    0.37723   0.14754   0.07508   1.000
    O446    O    0.92482   0.19831   0.07021   1.000
    O447    O    0.87726   0.14759   0.07512   1.000
    O448    O    0.31967   0.09167   0.07800   1.000
    O449    O    0.26452   0.04282   0.07819   1.000
    O450    O    0.81973   0.09171   0.07804   1.000
    O451    O    0.76460   0.04285   0.07824   1.000
    O452    O    0.40031   0.10586   0.10009   1.000
    O453    O    0.90036   0.10593   0.10014   1.000
    O454    O    0.62550   0.60334   0.09954   1.000
    O455    O    0.12550   0.60334   0.09954   1.000
    O456    O    0.22971   0.58854   0.10321   1.000
    O457    O    0.72971   0.58855   0.10323   1.000
    O458    O    0.82065   0.37986   0.12025   1.000
    O459    O    0.91291   0.41895   0.12269   1.000
    O460    O    0.32066   0.37986   0.12025   1.000
    O461    O    0.41292   0.41894   0.12235   1.000
    O462    O    0.74037   0.34355   0.12067   1.000
    O463    O    0.24037   0.34355   0.12068   1.000
    O464    O    0.66776   0.59898   0.13903   1.000
    O465    O    0.16776   0.59897   0.13903   1.000
    O466    O    0.49663   0.45181   0.12682   1.000
    O467    O    0.99662   0.45182   0.12716   1.000
    O468    O    0.79048   0.34265   0.15452   1.000
    O469    O    0.29048   0.34265   0.15452   1.000
    O470    O    0.47418   0.42158   0.15918   1.000
    O471    O    0.97417   0.42158   0.15951   1.000
    O472    O    0.52898   0.65608   0.17580   1.000
    O473    O    0.02899   0.65607   0.17580   1.000
    O474    O    0.11133   0.62128   0.17662   1.000
    O475    O    0.20277   0.58199   0.18072   1.000
    O476    O    0.61132   0.62129   0.17662   1.000
    O477    O    0.70277   0.58200   0.18075   1.000
    O478    O    0.60388   0.21301   0.18086   1.000
    O479    O    0.68030   0.25634   0.18549   1.000
    O480    O    0.10388   0.21301   0.18088   1.000
    O481    O    0.18029   0.25636   0.18550   1.000
    O482    O    0.75769   0.30429   0.18925   1.000
    O483    O    0.85106   0.34599   0.19152   1.000
    O484    O    0.25769   0.30429   0.18926   1.000
    O485    O    0.35107   0.34599   0.19153   1.000
    O486    O    0.78357   0.54769   0.18699   1.000
    O487    O    0.28357   0.54768   0.18697   1.000
    O488    O    0.02297   0.42198   0.19356   1.000
    O489    O    0.94249   0.38584   0.19408   1.000
    O490    O    0.52297   0.42198   0.19357   1.000
    O491    O    0.44250   0.38584   0.19409   1.000
    O492    O    0.05591   0.64378   0.21246   1.000
    O493    O    0.55590   0.64379   0.21246   1.000
    O494    O    0.55594   0.19095   0.21546   1.000
    O495    O    0.05597   0.19094   0.21547   1.000
    O496    O    0.37148   0.10804   0.21362   1.000
    O497    O    0.87148   0.10804   0.21363   1.000
    O498    O    0.23741   0.56398   0.22051   1.000
    O499    O    0.73741   0.56400   0.22052   1.000
    O500    O    0.71393   0.27469   0.22469   1.000
    O501    O    0.21395   0.27468   0.22474   1.000
    O502    O    0.90802   0.35257   0.22347   1.000
    O503    O    0.40803   0.35256   0.22347   1.000
    O504    O    0.32884   0.75003   0.24075   1.000
    O505    O    0.41042   0.70961   0.24537   1.000
    O506    O    0.82888   0.75004   0.24078   1.000
    O507    O    0.91044   0.70962   0.24540   1.000
    O508    O    0.73755   0.04977   0.24305   1.000
    O509    O    0.23755   0.04977   0.24305   1.000
    O510    O    0.31818   0.08565   0.24380   1.000
    O511    O    0.40822   0.12615   0.24775   1.000
    O512    O    0.81818   0.08565   0.24381   1.000
    O513    O    0.90822   0.12615   0.24776   1.000
    O514    O    0.49971   0.66853   0.24893   1.000
    O515    O    0.59158   0.62622   0.25228   1.000
    O516    O    0.99971   0.66852   0.24894   1.000
    O517    O    0.09158   0.62621   0.25228   1.000
    O518    O    0.50006   0.16846   0.25110   1.000
    O519    O    0.58934   0.20953   0.25465   1.000
    O520    O    0.00007   0.16846   0.25111   1.000
    O521    O    0.08934   0.20954   0.25466   1.000
    O522    O    0.68164   0.58573   0.25622   1.000
    O523    O    0.76229   0.54984   0.25698   1.000
    O524    O    0.18165   0.58571   0.25623   1.000
    O525    O    0.26228   0.54982   0.25698   1.000
    O526    O    0.67091   0.24994   0.25925   1.000
    O527    O    0.17093   0.24993   0.25929   1.000
    O528    O    0.28583   0.77477   0.27535   1.000
    O529    O    0.78585   0.77477   0.27535   1.000
    O530    O    0.26242   0.06393   0.27950   1.000
    O531    O    0.76241   0.06394   0.27951   1.000
    O532    O    0.09172   0.85267   0.27667   1.000
    O533    O    0.59174   0.85266   0.27667   1.000
    O534    O    0.44381   0.69100   0.28458   1.000
    O535    O    0.94383   0.69099   0.28458   1.000
    O536    O    0.44388   0.14372   0.28758   1.000
    O537    O    0.94388   0.14372   0.28758   1.000
    O538    O    0.12833   0.60810   0.28641   1.000
    O539    O    0.62833   0.60811   0.28641   1.000
    O540    O    0.05729   0.88594   0.30607   1.000
    O541    O    0.14873   0.84609   0.30860   1.000
    O542    O    0.55729   0.88593   0.30606   1.000
    O543    O    0.64875   0.84608   0.30861   1.000
    O544    O    0.47681   0.92207   0.30660   1.000
    O545    O    0.97680   0.92208   0.30661   1.000
    O546    O    0.24211   0.80437   0.31084   1.000
    O547    O    0.31949   0.75641   0.31457   1.000
    O548    O    0.74212   0.80436   0.31084   1.000
    O549    O    0.81953   0.75641   0.31457   1.000
    O550    O    0.21628   0.04762   0.31304   1.000
    O551    O    0.29706   0.08194   0.31929   1.000
    O552    O    0.71628   0.04763   0.31305   1.000
    O553    O    0.79706   0.08194   0.31930   1.000
    O554    O    0.39589   0.71305   0.31918   1.000
    O555    O    0.89593   0.71306   0.31918   1.000
    O556    O    0.38849   0.12123   0.32342   1.000
    O557    O    0.47081   0.15602   0.32423   1.000
    O558    O    0.88848   0.12123   0.32342   1.000
    O559    O    0.96881   0.15602   0.32423   1.000
    O560    O    0.52564   0.92164   0.34064   1.000
    O561    O    0.02564   0.92165   0.34066   1.000
    O562    O    0.20936   0.84272   0.34560   1.000
    O563    O    0.70937   0.84272   0.34560   1.000
    O564    O    0.33209   0.09891   0.36101   1.000
    O565    O    0.83209   0.09891   0.36102   1.000
    O566    O    0.00320   0.95187   0.37300   1.000
    O567    O    0.08693   0.91899   0.37748   1.000
    O568    O    0.50320   0.95186   0.37303   1.000
    O569    O    0.58693   0.91898   0.37749   1.000
    O570    O    0.25950   0.84359   0.37943   1.000
    O571    O    0.17920   0.87990   0.37989   1.000
    O572    O    0.75950   0.84359   0.37944   1.000
    O573    O    0.67920   0.87990   0.37990   1.000
    O574    O    0.59932   0.60597   0.39989   1.000
    O575    O    0.09932   0.60596   0.39990   1.000
    O576    O    0.27022   0.08844   0.39683   1.000
    O577    O    0.37441   0.10329   0.40050   1.000
    O578    O    0.77022   0.08844   0.39684   1.000
    O579    O    0.87441   0.10329   0.40050   1.000
    O580    O    0.15343   0.91942   0.41512   1.000
    O581    O    0.65343   0.91941   0.41509   1.000
    O582    O    0.14599   0.09137   0.44133   1.000
    O583    O    0.64599   0.09137   0.44133   1.000
    O584    O    0.00018   0.10622   0.44500   1.000
    O585    O    0.50017   0.10622   0.44500   1.000
    O586    O    0.73506   0.54285   0.42174   1.000
    O587    O    0.23508   0.54285   0.42175   1.000
    O588    O    0.67997   0.59173   0.42196   1.000
    O589    O    0.62247   0.64762   0.42490   1.000
    O590    O    0.17998   0.59172   0.42197   1.000
    O591    O    0.12248   0.64761   0.42491   1.000
    O592    O    0.57496   0.69836   0.42983   1.000
    O593    O    0.07497   0.69836   0.42983   1.000
    O594    O    0.76909   0.57976   0.44855   1.000
    O595    O    0.26911   0.57976   0.44855   1.000
    O596    O    0.65425   0.69195   0.45413   1.000
    O597    O    0.15425   0.69194   0.45414   1.000
    O598    O    0.72382   0.92915   0.44767   1.000
    O599    O    0.62269   0.94970   0.45175   1.000
    O600    O    0.22382   0.92915   0.44769   1.000
    O601    O    0.12270   0.94970   0.45179   1.000
    O602    O    0.35160   0.91107   0.48935   1.000
    O603    O    0.85159   0.91108   0.48936   1.000
    O604    O    0.47589   0.45876   0.46836   1.000
    O605    O    0.42057   0.51135   0.47270   1.000
    O606    O    0.97585   0.45875   0.46837   1.000
    O607    O    0.92052   0.51134   0.47270   1.000
    O608    O    0.57688   0.03444   0.47042   1.000
    O609    O    0.07689   0.03444   0.47042   1.000
    O610    O    0.86020   0.56637   0.47605   1.000
    O611    O    0.80150   0.62421   0.47770   1.000
    O612    O    0.36021   0.56637   0.47606   1.000
    O613    O    0.30150   0.62421   0.47771   1.000
    O614    O    0.74415   0.68050   0.48035   1.000
    O615    O    0.68664   0.73889   0.48401   1.000
    O616    O    0.24415   0.68050   0.48035   1.000
    O617    O    0.18664   0.73888   0.48402   1.000
    O618    O    0.05517   0.44739   0.49566   1.000
    O619    O    0.55517   0.44739   0.49566   1.000
    O620    O    0.15189   0.15129   0.47912   1.000
    O621    O    0.00241   0.14798   0.49365   1.000
    O622    O    0.14831   0.08890   0.51076   1.000
    O623    O    0.65188   0.15129   0.47912   1.000
    O624    O    0.50241   0.14798   0.49365   1.000
    O625    O    0.64830   0.08890   0.51076   1.000
    O626    O    0.27452   0.21250   0.49260   1.000
    O627    O    0.77452   0.21250   0.49291   1.000
    O628    O    0.17486   0.33327   0.49760   1.000
    O629    O    0.67486   0.33327   0.49763   1.000
    O630    O    0.94449   0.55256   0.50433   1.000
    O631    O    0.44450   0.55255   0.50434   1.000
    O632    O    0.82495   0.66670   0.50234   1.000
    O633    O    0.32494   0.66669   0.50236   1.000
    O634    O    0.62486   0.79083   0.49256   1.000
    O635    O    0.49750   0.85202   0.50639   1.000
    O636    O    0.12486   0.79082   0.49258   1.000
    O637    O    0.99751   0.85202   0.50641   1.000
    O638    O    0.72540   0.78748   0.50709   1.000
    O639    O    0.22540   0.78748   0.50710   1.000
    O640    O    0.37505   0.20919   0.50713   1.000
    O641    O    0.31321   0.26111   0.51570   1.000
    O642    O    0.87504   0.20919   0.50743   1.000
    O643    O    0.81320   0.26111   0.51580   1.000
    O644    O    0.25565   0.31949   0.51965   1.000
    O645    O    0.19825   0.37576   0.52227   1.000
    O646    O    0.75564   0.31948   0.51946   1.000
    O647    O    0.69825   0.37576   0.52228   1.000
    O648    O    0.63949   0.43359   0.52393   1.000
    O649    O    0.57917   0.48862   0.52727   1.000
    O650    O    0.13949   0.43359   0.52393   1.000
    O651    O    0.07914   0.48861   0.52725   1.000
    O652    O    0.34804   0.84867   0.52093   1.000
    O653    O    0.84804   0.84867   0.52093   1.000
    O654    O    0.92304   0.96552   0.52975   1.000
    O655    O    0.99981   0.89375   0.55508   1.000
    O656    O    0.85400   0.90854   0.55881   1.000
    O657    O    0.42304   0.96552   0.52975   1.000
    O658    O    0.49980   0.89375   0.55507   1.000
    O659    O    0.35401   0.90853   0.55882   1.000
    O660    O    0.02379   0.54119   0.53159   1.000
    O661    O    0.52382   0.54120   0.53162   1.000
    O662    O    0.84552   0.30806   0.54568   1.000
    O663    O    0.34553   0.30806   0.54587   1.000
    O664    O    0.23058   0.42022   0.55144   1.000
    O665    O    0.73060   0.42022   0.55144   1.000
    O666    O    0.87721   0.05028   0.54840   1.000
    O667    O    0.37721   0.05028   0.54840   1.000
    O668    O    0.77606   0.07083   0.55244   1.000
    O669    O    0.27606   0.07083   0.55245   1.000
    O670    O    0.84640   0.08060   0.58502   1.000
    O671    O    0.34641   0.08059   0.58500   1.000
    O672    O    0.42479   0.30167   0.57019   1.000
    O673    O    0.37723   0.35239   0.57510   1.000
    O674    O    0.92480   0.30166   0.57019   1.000
    O675    O    0.87723   0.35239   0.57512   1.000
    O676    O    0.31968   0.40827   0.57804   1.000
    O677    O    0.26454   0.45713   0.57825   1.000
    O678    O    0.81970   0.40827   0.57805   1.000
    O679    O    0.76456   0.45713   0.57825   1.000
    O680    O    0.40031   0.39405   0.60013   1.000
    O681    O    0.90032   0.39405   0.60013   1.000
    O682    O    0.62559   0.89666   0.59957   1.000
    O683    O    0.12560   0.89666   0.59958   1.000
    O684    O    0.72979   0.91144   0.60331   1.000
    O685    O    0.22980   0.91144   0.60332   1.000
    O686    O    0.32060   0.12013   0.62019   1.000
    O687    O    0.41287   0.08104   0.62263   1.000
    O688    O    0.82059   0.12014   0.62022   1.000
    O689    O    0.91287   0.08105   0.62265   1.000
    O690    O    0.24031   0.15644   0.62065   1.000
    O691    O    0.74030   0.15645   0.62065   1.000
    O692    O    0.66778   0.90102   0.63909   1.000
    O693    O    0.16778   0.90102   0.63909   1.000
    O694    O    0.99658   0.04817   0.62708   1.000
    O695    O    0.49659   0.04817   0.62712   1.000
    O696    O    0.29042   0.15734   0.65450   1.000
    O697    O    0.79041   0.15734   0.65449   1.000
    O698    O    0.97413   0.07840   0.65948   1.000
    O699    O    0.47414   0.07840   0.65948   1.000
    O700    O    0.52896   0.84392   0.67583   1.000
    O701    O    0.02897   0.84392   0.67584   1.000
    O702    O    0.61129   0.87870   0.67666   1.000
    O703    O    0.70272   0.91799   0.68080   1.000
    O704    O    0.11130   0.87871   0.67668   1.000
    O705    O    0.20272   0.91800   0.68081   1.000
    O706    O    0.60376   0.28698   0.68089   1.000
    O707    O    0.68019   0.24364   0.68550   1.000
    O708    O    0.10379   0.28698   0.68086   1.000
    O709    O    0.18021   0.24363   0.68550   1.000
    O710    O    0.75763   0.19571   0.68924   1.000
    O711    O    0.85100   0.15399   0.69149   1.000
    O712    O    0.25764   0.19569   0.68925   1.000
    O713    O    0.35102   0.15398   0.69151   1.000
    O714    O    0.28350   0.95232   0.68705   1.000
    O715    O    0.78351   0.95230   0.68706   1.000
    O716    O    0.52294   0.07799   0.69353   1.000
    O717    O    0.44246   0.11413   0.69405   1.000
    O718    O    0.02293   0.07799   0.69353   1.000
    O719    O    0.94245   0.11414   0.69405   1.000
    O720    O    0.55587   0.85620   0.71249   1.000
    O721    O    0.05588   0.85620   0.71250   1.000
    O722    O    0.05590   0.30905   0.71546   1.000
    O723    O    0.55588   0.30905   0.71549   1.000
    O724    O    0.37138   0.39197   0.71369   1.000
    O725    O    0.87139   0.39196   0.71369   1.000
    O726    O    0.23733   0.93600   0.72060   1.000
    O727    O    0.73734   0.93598   0.72060   1.000
    O728    O    0.71390   0.22530   0.72473   1.000
    O729    O    0.21392   0.22530   0.72473   1.000
    O730    O    0.90798   0.14741   0.72344   1.000
    O731    O    0.40799   0.14740   0.72345   1.000
    O732    O    0.82887   0.74994   0.74079   1.000
    O733    O    0.91043   0.79035   0.74542   1.000
    O734    O    0.32885   0.74995   0.74078   1.000
    O735    O    0.41040   0.79036   0.74541   1.000
    O736    O    0.23744   0.45023   0.74310   1.000
    O737    O    0.73745   0.45022   0.74313   1.000
    O738    O    0.81810   0.41434   0.74387   1.000
    O739    O    0.90816   0.37384   0.74780   1.000
    O740    O    0.31809   0.41434   0.74387   1.000
    O741    O    0.40815   0.37384   0.74777   1.000
    O742    O    0.99968   0.83146   0.74897   1.000
    O743    O    0.09152   0.87376   0.75188   1.000
    O744    O    0.49966   0.83146   0.74896   1.000
    O745    O    0.59152   0.87375   0.75232   1.000
    O746    O    0.50001   0.33153   0.75111   1.000
    O747    O    0.58930   0.29045   0.75467   1.000
    O748    O    0.00003   0.33153   0.75114   1.000
    O749    O    0.08932   0.29045   0.75467   1.000
    O750    O    0.68156   0.91425   0.75629   1.000
    O751    O    0.76219   0.95013   0.75705   1.000
    O752    O    0.18155   0.91427   0.75584   1.000
    O753    O    0.26218   0.95015   0.75706   1.000
    O754    O    0.67088   0.25005   0.75929   1.000
    O755    O    0.17091   0.25005   0.75930   1.000
    O756    O    0.09172   0.64732   0.77265   1.000
    O757    O    0.28582   0.72521   0.77534   1.000
    O758    O    0.78583   0.72521   0.77536   1.000
    O759    O    0.26235   0.43605   0.77958   1.000
    O760    O    0.76235   0.43605   0.77958   1.000
    O761    O    0.59172   0.64733   0.77665   1.000
    O762    O    0.44376   0.80898   0.78460   1.000
    O763    O    0.94378   0.80898   0.78461   1.000
    O764    O    0.44385   0.35626   0.78759   1.000
    O765    O    0.94386   0.35626   0.78763   1.000
    O766    O    0.12824   0.89187   0.78601   1.000
    O767    O    0.62825   0.89185   0.78645   1.000
    O768    O    0.05727   0.61406   0.80605   1.000
    O769    O    0.14871   0.65391   0.80859   1.000
    O770    O    0.55727   0.61407   0.80606   1.000
    O771    O    0.64872   0.65391   0.80860   1.000
    O772    O    0.97680   0.57792   0.80659   1.000
    O773    O    0.47680   0.57793   0.80659   1.000
    O774    O    0.24208   0.69562   0.81084   1.000
    O775    O    0.31946   0.74357   0.81458   1.000
    O776    O    0.74209   0.69562   0.81084   1.000
    O777    O    0.81948   0.74356   0.81459   1.000
    O778    O    0.71622   0.45235   0.81313   1.000
    O779    O    0.79703   0.41804   0.81936   1.000
    O780    O    0.21622   0.45236   0.81313   1.000
    O781    O    0.29703   0.41804   0.81936   1.000
    O782    O    0.39584   0.78693   0.81920   1.000
    O783    O    0.89587   0.78692   0.81921   1.000
    O784    O    0.38847   0.37875   0.82346   1.000
    O785    O    0.47081   0.34396   0.82427   1.000
    O786    O    0.88847   0.37875   0.82347   1.000
    O787    O    0.96880   0.34396   0.82427   1.000
    O788    O    0.02562   0.57834   0.84060   1.000
    O789    O    0.52561   0.57835   0.84064   1.000
    O790    O    0.20932   0.65727   0.84559   1.000
    O791    O    0.70933   0.65727   0.84559   1.000
    O792    O    0.33212   0.40108   0.86107   1.000
    O793    O    0.83211   0.40107   0.86103   1.000
    O794    O    0.00318   0.54813   0.87297   1.000
    O795    O    0.08690   0.58100   0.87743   1.000
    O796    O    0.50318   0.54813   0.87300   1.000
    O797    O    0.58690   0.58100   0.87747   1.000
    O798    O    0.75946   0.65638   0.87943   1.000
    O799    O    0.67917   0.62008   0.87988   1.000
    O800    O    0.25945   0.65639   0.87943   1.000
    O801    O    0.17916   0.62008   0.87988   1.000
    O802    O    0.59931   0.89402   0.89987   1.000
    O803    O    0.09936   0.89409   0.89992   1.000
    O804    O    0.77028   0.41153   0.89685   1.000
    O805    O    0.87448   0.39669   0.90050   1.000
    O806    O    0.27029   0.41155   0.89690   1.000
    O807    O    0.37448   0.39669   0.90055   1.000
    O808    O    0.15341   0.58056   0.91510   1.000
    O809    O    0.65340   0.58056   0.91511   1.000
    O810    O    0.64603   0.40861   0.94139   1.000
    O811    O    0.14604   0.40863   0.94139   1.000
    O812    O    0.00024   0.39377   0.94504   1.000
    O813    O    0.50023   0.39376   0.94504   1.000
    O814    O    0.73505   0.95713   0.92171   1.000
    O815    O    0.23513   0.95717   0.92177   1.000
    O816    O    0.67996   0.90826   0.92194   1.000
    O817    O    0.62247   0.85237   0.92488   1.000
    O818    O    0.18001   0.90831   0.92199   1.000
    O819    O    0.12250   0.85242   0.92493   1.000
    O820    O    0.57495   0.80164   0.92981   1.000
    O821    O    0.07498   0.80169   0.92984   1.000
    O822    O    0.76908   0.92023   0.94852   1.000
    O823    O    0.26914   0.92025   0.94857   1.000
    O824    O    0.65424   0.80805   0.95411   1.000
    O825    O    0.15426   0.80809   0.95415   1.000
    O826    O    0.72379   0.57082   0.94767   1.000
    O827    O    0.62267   0.55027   0.95176   1.000
    O828    O    0.22380   0.57082   0.94767   1.000
    O829    O    0.12268   0.55028   0.95176   1.000
    O830    O    0.97579   0.04126   0.96834   1.000
    O831    O    0.92047   0.98866   0.97266   1.000
    O832    O    0.47596   0.04122   0.96836   1.000
    O833    O    0.42061   0.98864   0.97271   1.000
    O834    O    0.57688   0.46553   0.97043   1.000
    O835    O    0.07689   0.46554   0.97043   1.000
    O836    O    0.86018   0.93361   0.97600   1.000
    O837    O    0.80149   0.87578   0.97768   1.000
    O838    O    0.36026   0.93362   0.97607   1.000
    O839    O    0.30154   0.87579   0.97772   1.000
    O840    O    0.74415   0.81949   0.98032   1.000
    O841    O    0.68663   0.76111   0.98399   1.000
    O842    O    0.24418   0.81951   0.98036   1.000
    O843    O    0.18665   0.76113   0.98402   1.000
    O844    O    0.65190   0.34869   0.97915   1.000
    O845    O    0.15191   0.34870   0.97915   1.000
    O846    O    0.62485   0.70918   0.99254   1.000
    O847    O    0.12487   0.70919   0.99257   1.000
    O848    O    0.00045   0.56837   0.99342   1.000
    O849    O    0.50045   0.56836   0.99342   1.000
    O850    O    0.49945   0.06834   0.50672   1.000
    O851    O    0.99946   0.06834   0.50672   1.000
    O852    O    0.49947   0.43165   0.00676   1.000
    O853    O    0.99947   0.43166   0.00676   1.000
    O854    O    0.00047   0.93162   0.49345   1.000
    O855    O    0.50047   0.93162   0.49345   1.000
loop_
    _geom_bond_atom_site_label_1
    _geom_bond_atom_site_label_2
    _geom_bond_distance
    _geom_bond_site_symmetry_2
    _ccdc_geom_bond_type
    C153   O392      0.63830      .   S
    C359   O392      0.63830      .   S
    C153   O393      0.74877      .   S
    C155   O393      0.74877      .   S
    C153   O394      0.63828  1_554   S
    C357   O394      0.63828      .   S
    C152   O395      0.63828      .   S
    C358   O395      0.63828      .   S
    C152   O396      0.74871      .   S
    C154   O396      0.74871      .   S
    C152   O397      0.63834  1_554   S
    C356   O397      0.63834      .   S
    C358   O398      1.23014  1_554   S
    C3     O398      1.23014      .   S
    C359   O399      1.23016  1_654   S
    C2     O399      1.23016      .   S
    C156   O400      0.69991      .   S
    C154   O400      0.69991      .   S
    C156   O401      0.70173      .   S
    C158   O401      0.70173      .   S
    C156   O402      0.54286  1_554   S
    C32    O402      0.54286      .   S
    C157   O403      0.69952      .   S
    C155   O403      0.69952      .   S
    C157   O404      0.70125      .   S
    C159   O404      0.70125      .   S
    C157   O405      0.54375  1_554   S
    C33    O405      0.54375      .   S
    C166   O406      0.73646      .   S
    C158   O406      0.73646      .   S
    C166   O407      0.67810      .   S
    C308   O407      0.67810  1_565   S
    C166   O408      0.67819  1_554   S
    C310   O408      0.67819      .   S
    C167   O409      0.73646      .   S
    C159   O409      0.73646      .   S
    C167   O410      0.67776      .   S
    C309   O410      0.67776  1_565   S
    C167   O411      0.67812  1_554   S
    C311   O411      0.67812      .   S
    C81    O412      0.54369      .   S
    C253   O412      0.54369  1_556   S
    C80    O413      0.54371      .   S
    C252   O413      0.54371  1_556   S
    C380   O414      1.20502      .   S
    C6     O414      1.20502      .   S
    C380   O415      0.63834      .   S
    C248   O415      0.63834  1_556   S
    C381   O416      1.20502      .   S
    C7     O416      1.20502      .   S
    C381   O417      0.63841      .   S
    C249   O417      0.63841  1_556   S
    C6     O418      1.29722      .   S
    C378   O418      1.29722      .   S
    C6     O419      1.20003      .   S
    C387   O419      1.20003      .   S
    C6     O420      1.23386      .   S
    C384   O420      1.23386      .   S
    C6     O421      1.23387  1_554   S
    C352   O421      1.23387      .   S
    C6     O422      1.23049      .   S
    C383   O422      1.23049  1_556   S
    C7     O423      1.29720      .   S
    C379   O423      1.29720      .   S
    C7     O424      1.20007      .   S
    C386   O424      1.20007  1_455   S
    C7     O425      1.23441      .   S
    C385   O425      1.23441      .   S
    C7     O426      1.23383  1_554   S
    C353   O426      1.23383      .   S
    C7     O427      1.23041      .   S
    C382   O427      1.23041  1_456   S
    C335   O428      0.66160  1_655   S
    C308   O428      0.66160      .   S
    C335   O429      0.67868      .   S
    C263   O429      0.67868  1_556   S
    C334   O430      0.66132      .   S
    C309   O430      0.66132      .   S
    C334   O431      0.67815      .   S
    C262   O431      0.67815  1_556   S
    C154   O432      0.70123      .   S
    C164   O432      0.70123      .   S
    C155   O433      0.70130      .   S
    C165   O433      0.70130      .   S
    C158   O434      0.70431      .   S
    C160   O434      0.70431      .   S
    C159   O435      0.70386      .   S
    C161   O435      0.70386      .   S
    C379   O436      0.65014      .   S
    C235   O436      0.65014      .   S
    C378   O437      0.65018      .   S
    C234   O437      0.65018      .   S
    C377   O438      0.62952      .   S
    C235   O438      0.62952      .   S
    C377   O439      1.23389      .   S
    C3     O439      1.23389  1_556   S
    C376   O440      0.62953      .   S
    C234   O440      0.62953      .   S
    C376   O441      1.23391      .   S
    C2     O441      1.23391  1_556   S
    C235   O442      0.74765      .   S
    C237   O442      0.74765      .   S
    C234   O443      0.74754      .   S
    C236   O443      0.74754      .   S
    C164   O444      0.54438      .   S
    C38    O444      0.54438      .   S
    C164   O445      0.69766      .   S
    C162   O445      0.69766      .   S
    C165   O446      0.54438      .   S
    C39    O446      0.54438      .   S
    C165   O447      0.69763      .   S
    C163   O447      0.69763      .   S
    C160   O448      0.69679      .   S
    C162   O448      0.69679      .   S
    C160   O449      0.54439      .   S
    C34    O449      0.54439      .   S
    C161   O450      0.69698      .   S
    C163   O450      0.69698      .   S
    C161   O451      0.54477      .   S
    C35    O451      0.54477      .   S
    C162   O452      0.54493      .   S
    C36    O452      0.54493      .   S
    C163   O453      0.54492      .   S
    C37    O453      0.54492      .   S
    C387   O454      0.63659      .   S
    C265   O454      0.63659      .   S
    C386   O455      0.63657      .   S
    C264   O455      0.63657      .   S
    C384   O456      0.63569      .   S
    C264   O456      0.63569      .   S
    C385   O457      0.63543      .   S
    C265   O457      0.63543      .   S
    C237   O458      0.69962      .   S
    C239   O458      0.69962      .   S
    C237   O459      0.70133      .   S
    C247   O459      0.70133      .   S
    C236   O460      0.69968      .   S
    C238   O460      0.69968      .   S
    C236   O461      0.69638      .   S
    C246   O461      0.69638      .   S
    C73    O462      0.54385      .   S
    C239   O462      0.54385      .   S
    C72    O463      0.54388      .   S
    C238   O463      0.54388      .   S
    C265   O464      0.75103      .   S
    C267   O464      0.75103      .   S
    C264   O465      0.75103      .   S
    C266   O465      0.75103      .   S
    C79    O466      0.53971      .   S
    C246   O466      0.53971      .   S
    C78    O467      0.54374  1_455   S
    C247   O467      0.54374      .   S
    C239   O468      0.70066      .   S
    C241   O468      0.70066      .   S
    C238   O469      0.70062      .   S
    C240   O469      0.70062      .   S
    C246   O470      0.70724      .   S
    C244   O470      0.70724      .   S
    C247   O471      0.69810      .   S
    C245   O471      0.69810      .   S
    C89    O472      0.54391      .   S
    C269   O472      0.54391      .   S
    C88    O473      0.54383  1_655   S
    C268   O473      0.54383      .   S
    C266   O474      0.69919      .   S
    C268   O474      0.69919      .   S
    C266   O475      0.70066      .   S
    C276   O475      0.70066      .   S
    C267   O476      0.69920      .   S
    C269   O476      0.69920      .   S
    C267   O477      0.70106      .   S
    C277   O477      0.70106      .   S
    C329   O478      0.66303      .   S
    C331   O478      0.66303      .   S
    C329   O479      0.67746      .   S
    C233   O479      0.67746      .   S
    C328   O480      0.66301      .   S
    C330   O480      0.66301      .   S
    C328   O481      0.67746      .   S
    C232   O481      0.67746      .   S
    C241   O482      0.73603      .   S
    C233   O482      0.73603      .   S
    C241   O483      0.70423      .   S
    C243   O483      0.70423      .   S
    C240   O484      0.73603      .   S
    C232   O484      0.73603      .   S
    C240   O485      0.70419      .   S
    C242   O485      0.70419      .   S
    C95    O486      0.54393      .   S
    C277   O486      0.54393      .   S
    C94    O487      0.54364      .   S
    C276   O487      0.54364      .   S
    C245   O488      0.54508  1_655   S
    C76    O488      0.54508      .   S
    C245   O489      0.69686      .   S
    C243   O489      0.69686      .   S
    C244   O490      0.54497      .   S
    C77    O490      0.54497      .   S
    C244   O491      0.69680      .   S
    C242   O491      0.69680      .   S
    C268   O492      0.70222      .   S
    C270   O492      0.70222      .   S
    C269   O493      0.70208      .   S
    C271   O493      0.70208      .   S
    C331   O494      0.67783      .   S
    C231   O494      0.67783      .   S
    C330   O495      0.67784      .   S
    C230   O495      0.67784      .   S
    C66    O496      0.54401      .   S
    C224   O496      0.54401      .   S
    C67    O497      0.54401      .   S
    C225   O497      0.54401      .   S
    C276   O498      0.69829      .   S
    C274   O498      0.69829      .   S
    C277   O499      0.69733      .   S
    C275   O499      0.69733      .   S
    C233   O500      0.67725      .   S
    C327   O500      0.67725      .   S
    C232   O501      0.67811      .   S
    C326   O501      0.67811      .   S
    C243   O502      0.54481      .   S
    C75    O502      0.54481      .   S
    C242   O503      0.54477      .   S
    C74    O503      0.54477      .   S
    C336   O504      0.66162      .   S
    C338   O504      0.66162      .   S
    C336   O505      0.67897      .   S
    C278   O505      0.67897      .   S
    C337   O506      0.66139      .   S
    C339   O506      0.66139      .   S
    C337   O507      0.67852      .   S
    C279   O507      0.67852      .   S
    C69    O508      0.54521      .   S
    C227   O508      0.54521      .   S
    C68    O509      0.54513      .   S
    C226   O509      0.54513      .   S
    C224   O510      0.69641      .   S
    C226   O510      0.69641      .   S
    C224   O511      0.70390      .   S
    C222   O511      0.70390      .   S
    C225   O512      0.69642      .   S
    C227   O512      0.69642      .   S
    C225   O513      0.70390      .   S
    C223   O513      0.70390      .   S
    C271   O514      0.73585      .   S
    C278   O514      0.73585      .   S
    C271   O515      0.70393      .   S
    C273   O515      0.70393      .   S
    C270   O516      0.73585  1_455   S
    C279   O516      0.73585      .   S
    C270   O517      0.70386      .   S
    C272   O517      0.70386      .   S
    C231   O518      0.73582      .   S
    C222   O518      0.73582      .   S
    C231   O519      0.67857      .   S
    C325   O519      0.67857      .   S
    C230   O520      0.73586      .   S
    C223   O520      0.73586  1_655   S
    C230   O521      0.67857      .   S
    C324   O521      0.67857      .   S
    C275   O522      0.69657      .   S
    C273   O522      0.69657      .   S
    C275   O523      0.54537      .   S
    C93    O523      0.54537      .   S
    C274   O524      0.69645      .   S
    C272   O524      0.69645      .   S
    C274   O525      0.54521      .   S
    C92    O525      0.54521      .   S
    C327   O526      0.66171      .   S
    C325   O526      0.66171      .   S
    C326   O527      0.66135      .   S
    C324   O527      0.66135      .   S
    C338   O528      0.67822      .   S
    C280   O528      0.67822      .   S
    C339   O529      0.67807      .   S
    C281   O529      0.67807      .   S
    C226   O530      0.69774      .   S
    C228   O530      0.69774      .   S
    C227   O531      0.69774      .   S
    C229   O531      0.69774      .   S
    C98    O532      0.54478      .   S
    C290   O532      0.54478      .   S
    C99    O533      0.54467      .   S
    C291   O533      0.54467      .   S
    C278   O534      0.67784      .   S
    C342   O534      0.67784      .   S
    C279   O535      0.67783      .   S
    C343   O535      0.67783      .   S
    C222   O536      0.70222      .   S
    C220   O536      0.70222      .   S
    C223   O537      0.70208      .   S
    C221   O537      0.70208      .   S
    C272   O538      0.54401      .   S
    C90    O538      0.54401      .   S
    C273   O539      0.54401      .   S
    C91    O539      0.54401      .   S
    C290   O540      0.69683      .   S
    C292   O540      0.69683      .   S
    C290   O541      0.70422      .   S
    C288   O541      0.70422      .   S
    C291   O542      0.69667      .   S
    C293   O542      0.69667      .   S
    C291   O543      0.70428      .   S
    C289   O543      0.70428      .   S
    C100   O544      0.54480      .   S
    C293   O544      0.54480      .   S
    C101   O545      0.54509      .   S
    C292   O545      0.54509  1_455   S
    C280   O546      0.73607      .   S
    C288   O546      0.73607      .   S
    C280   O547      0.67745      .   S
    C340   O547      0.67745      .   S
    C281   O548      0.73611      .   S
    C289   O548      0.73611      .   S
    C281   O549      0.67745      .   S
    C341   O549      0.67745      .   S
    C228   O550      0.54396      .   S
    C70    O550      0.54396      .   S
    C228   O551      0.70105      .   S
    C218   O551      0.70105      .   S
    C229   O552      0.54390      .   S
    C71    O552      0.54390      .   S
    C229   O553      0.70105      .   S
    C219   O553      0.70105      .   S
    C342   O554      0.66303      .   S
    C340   O554      0.66303      .   S
    C343   O555      0.66302      .   S
    C341   O555      0.66302      .   S
    C220   O556      0.69915      .   S
    C218   O556      0.69915      .   S
    C220   O557      0.54381      .   S
    C64    O557      0.54381      .   S
    C221   O558      0.69922      .   S
    C219   O558      0.69922      .   S
    C221   O559      0.53070      .   S
    C65    O559      0.53070  1_455   S
    C293   O560      0.69856      .   S
    C295   O560      0.69856      .   S
    C292   O561      0.69815      .   S
    C294   O561      0.69815      .   S
    C288   O562      0.70071      .   S
    C286   O562      0.70071      .   S
    C289   O563      0.70061      .   S
    C287   O563      0.70061      .   S
    C218   O564      0.75114      .   S
    C216   O564      0.75114      .   S
    C219   O565      0.75114      .   S
    C217   O565      0.75114      .   S
    C294   O566      0.54338      .   S
    C103   O566      0.54338  1_655   S
    C294   O567      0.70140      .   S
    C284   O567      0.70140      .   S
    C295   O568      0.54376      .   S
    C102   O568      0.54376      .   S
    C295   O569      0.70146      .   S
    C285   O569      0.70146      .   S
    C286   O570      0.54384      .   S
    C96    O570      0.54384      .   S
    C286   O571      0.69970      .   S
    C284   O571      0.69970      .   S
    C287   O572      0.54389      .   S
    C97    O572      0.54389      .   S
    C287   O573      0.69976      .   S
    C285   O573      0.69976      .   S
    C13    O574      0.54492      .   S
    C115   O574      0.54492      .   S
    C12    O575      0.54485      .   S
    C114   O575      0.54485      .   S
    C216   O576      0.63544      .   S
    C372   O576      0.63544      .   S
    C216   O577      0.63665      .   S
    C374   O577      0.63665      .   S
    C217   O578      0.63544      .   S
    C373   O578      0.63544      .   S
    C217   O579      0.63658      .   S
    C375   O579      0.63658      .   S
    C284   O580      0.74777      .   S
    C282   O580      0.74777      .   S
    C285   O581      0.74688      .   S
    C283   O581      0.74688      .   S
    C372   O582      1.23476      .   S
    C4     O582      1.23476      .   S
    C373   O583      1.23471      .   S
    C5     O583      1.23471      .   S
    C375   O584      1.20045  1_655   S
    C4     O584      1.20045      .   S
    C374   O585      1.20040      .   S
    C5     O585      1.20040      .   S
    C11    O586      0.54456      .   S
    C113   O586      0.54456      .   S
    C10    O587      0.54451      .   S
    C112   O587      0.54451      .   S
    C115   O588      0.69680      .   S
    C113   O588      0.69680      .   S
    C115   O589      0.69763      .   S
    C117   O589      0.69763      .   S
    C114   O590      0.69680      .   S
    C112   O590      0.69680      .   S
    C114   O591      0.69768      .   S
    C116   O591      0.69768      .   S
    C15    O592      0.54438      .   S
    C117   O592      0.54438      .   S
    C14    O593      0.54441      .   S
    C116   O593      0.54441      .   S
    C113   O594      0.70433      .   S
    C111   O594      0.70433      .   S
    C112   O595      0.70434      .   S
    C110   O595      0.70434      .   S
    C117   O596      0.70126      .   S
    C107   O596      0.70126      .   S
    C116   O597      0.70121      .   S
    C106   O597      0.70121      .   S
    C283   O598      0.62984      .   S
    C389   O598      0.62984      .   S
    C283   O599      0.65069      .   S
    C391   O599      0.65069      .   S
    C282   O600      0.62949      .   S
    C388   O600      0.62949      .   S
    C282   O601      0.65026      .   S
    C390   O601      0.65026      .   S
    C388   O602      1.23380      .   S
    C0     O602      1.23380      .   S
    C389   O603      1.23371      .   S
    C1     O603      1.23371      .   S
    C296   O604      0.66162      .   S
    C323   O604      0.66162      .   S
    C296   O605      0.67797      .   S
    C118   O605      0.67797      .   S
    C297   O606      0.66168      .   S
    C322   O606      0.66168  1_455   S
    C297   O607      0.67798      .   S
    C119   O607      0.67798      .   S
    C391   O608      1.29691  1_565   S
    C5     O608      1.29691      .   S
    C390   O609      1.29690  1_565   S
    C4     O609      1.29690      .   S
    C111   O610      0.73643      .   S
    C119   O610      0.73643      .   S
    C111   O611      0.70125      .   S
    C109   O611      0.70125      .   S
    C110   O612      0.73644      .   S
    C118   O612      0.73644      .   S
    C110   O613      0.70123      .   S
    C108   O613      0.70123      .   S
    C107   O614      0.69953      .   S
    C109   O614      0.69953      .   S
    C107   O615      0.74869      .   S
    C105   O615      0.74869      .   S
    C106   O616      0.69949      .   S
    C108   O616      0.69949      .   S
    C106   O617      0.74870      .   S
    C104   O617      0.74870      .   S
    C322   O618      0.67814      .   S
    C214   O618      0.67814      .   S
    C323   O619      0.67791      .   S
    C215   O619      0.67791      .   S
    C4     O620      1.20518      .   S
    C368   O620      1.20518      .   S
    C4     O621      1.22998      .   S
    C371   O621      1.22998  1_655   S
    C4     O622      1.23390      .   S
    C364   O622      1.23390      .   S
    C5     O623      1.20520      .   S
    C369   O623      1.20520      .   S
    C5     O624      1.22991      .   S
    C370   O624      1.22991      .   S
    C5     O625      1.23385      .   S
    C365   O625      1.23385      .   S
    C368   O626      0.63423      .   S
    C200   O626      0.63423      .   S
    C369   O627      0.63838      .   S
    C201   O627      0.63838      .   S
    C56    O628      0.54410      .   S
    C204   O628      0.54410      .   S
    C57    O629      0.54365      .   S
    C205   O629      0.54365      .   S
    C119   O630      0.67811      .   S
    C299   O630      0.67811      .   S
    C118   O631      0.67810      .   S
    C298   O631      0.67810      .   S
    C109   O632      0.54339      .   S
    C9     O632      0.54339      .   S
    C108   O633      0.54372      .   S
    C8     O633      0.54372      .   S
    C347   O634      0.63839      .   S
    C105   O634      0.63839      .   S
    C347   O635      1.23032      .   S
    C0     O635      1.23032      .   S
    C346   O636      0.63830      .   S
    C104   O636      0.63830      .   S
    C346   O637      1.23009  1_455   S
    C1     O637      1.23009      .   S
    C105   O638      0.63833      .   S
    C345   O638      0.63833      .   S
    C104   O639      0.63831      .   S
    C344   O639      0.63831      .   S
    C200   O640      0.63946      .   S
    C370   O640      0.63946      .   S
    C200   O641      0.75221      .   S
    C202   O641      0.75221      .   S
    C201   O642      0.63829      .   S
    C371   O642      0.63829      .   S
    C201   O643      0.74642      .   S
    C203   O643      0.74642      .   S
    C204   O644      0.69956      .   S
    C202   O644      0.69956      .   S
    C204   O645      0.70126      .   S
    C206   O645      0.70126      .   S
    C205   O646      0.69781      .   S
    C203   O646      0.69781      .   S
    C205   O647      0.70126      .   S
    C207   O647      0.70126      .   S
    C215   O648      0.73654      .   S
    C207   O648      0.73654      .   S
    C215   O649      0.67807      .   S
    C321   O649      0.67807      .   S
    C214   O650      0.73644      .   S
    C206   O650      0.73644      .   S
    C214   O651      0.67760      .   S
    C320   O651      0.67760      .   S
    C344   O652      1.20516      .   S
    C0     O652      1.20516      .   S
    C345   O653      1.20517      .   S
    C1     O653      1.20517      .   S
    C1     O654      1.29711      .   S
    C367   O654      1.29711  1_545   S
    C1     O655      1.20035      .   S
    C350   O655      1.20035  1_455   S
    C1     O656      1.23487      .   S
    C349   O656      1.23487      .   S
    C0     O657      1.29714      .   S
    C366   O657      1.29714  1_545   S
    C0     O658      1.20020      .   S
    C351   O658      1.20020      .   S
    C0     O659      1.23493      .   S
    C348   O659      1.23493      .   S
    C299   O660      0.66140  1_655   S
    C320   O660      0.66140      .   S
    C298   O661      0.66160      .   S
    C321   O661      0.66160      .   S
    C203   O662      0.70533      .   S
    C213   O662      0.70533      .   S
    C202   O663      0.70117      .   S
    C212   O663      0.70117      .   S
    C206   O664      0.70437      .   S
    C208   O664      0.70437      .   S
    C207   O665      0.70433      .   S
    C209   O665      0.70433      .   S
    C367   O666      0.65016      .   S
    C187   O666      0.65016      .   S
    C366   O667      0.65013      .   S
    C186   O667      0.65013      .   S
    C365   O668      0.62953      .   S
    C187   O668      0.62953      .   S
    C364   O669      0.62949      .   S
    C186   O669      0.62949      .   S
    C187   O670      0.74758      .   S
    C189   O670      0.74758      .   S
    C186   O671      0.74696      .   S
    C188   O671      0.74696      .   S
    C212   O672      0.54441      .   S
    C62    O672      0.54441      .   S
    C212   O673      0.69765      .   S
    C210   O673      0.69765      .   S
    C213   O674      0.54436      .   S
    C63    O674      0.54436      .   S
    C213   O675      0.69763      .   S
    C211   O675      0.69763      .   S
    C208   O676      0.69677      .   S
    C210   O676      0.69677      .   S
    C208   O677      0.54452      .   S
    C58    O677      0.54452      .   S
    C209   O678      0.69679      .   S
    C211   O678      0.69679      .   S
    C209   O679      0.54452      .   S
    C59    O679      0.54452      .   S
    C210   O680      0.54495      .   S
    C60    O680      0.54495      .   S
    C211   O681      0.54490      .   S
    C61    O681      0.54490      .   S
    C351   O682      0.63662      .   S
    C121   O682      0.63662      .   S
    C350   O683      0.63660      .   S
    C120   O683      0.63660      .   S
    C349   O684      0.63540      .   S
    C121   O684      0.63540      .   S
    C348   O685      0.63541      .   S
    C120   O685      0.63541      .   S
    C188   O686      0.69996      .   S
    C190   O686      0.69996      .   S
    C188   O687      0.70181      .   S
    C198   O687      0.70181      .   S
    C189   O688      0.69968      .   S
    C191   O688      0.69968      .   S
    C189   O689      0.70144      .   S
    C199   O689      0.70144      .   S
    C48    O690      0.54385      .   S
    C190   O690      0.54385      .   S
    C49    O691      0.54382      .   S
    C191   O691      0.54382      .   S
    C121   O692      0.75108      .   S
    C123   O692      0.75108      .   S
    C120   O693      0.75108      .   S
    C122   O693      0.75108      .   S
    C54    O694      0.54430  1_455   S
    C199   O694      0.54430      .   S
    C55    O695      0.54378      .   S
    C198   O695      0.54378      .   S
    C190   O696      0.70074      .   S
    C192   O696      0.70074      .   S
    C191   O697      0.70065      .   S
    C193   O697      0.70065      .   S
    C199   O698      0.69808      .   S
    C197   O698      0.69808      .   S
    C198   O699      0.69806      .   S
    C196   O699      0.69806      .   S
    C17    O700      0.54383      .   S
    C125   O700      0.54383      .   S
    C16    O701      0.54385  1_655   S
    C124   O701      0.54385      .   S
    C123   O702      0.69917      .   S
    C125   O702      0.69917      .   S
    C123   O703      0.70104      .   S
    C133   O703      0.70104      .   S
    C122   O704      0.69915      .   S
    C124   O704      0.69915      .   S
    C122   O705      0.70097      .   S
    C132   O705      0.70097      .   S
    C317   O706      0.66305      .   S
    C319   O706      0.66305      .   S
    C317   O707      0.67749      .   S
    C185   O707      0.67749      .   S
    C316   O708      0.66264      .   S
    C318   O708      0.66264      .   S
    C316   O709      0.67741      .   S
    C184   O709      0.67741      .   S
    C193   O710      0.73606      .   S
    C185   O710      0.73606      .   S
    C193   O711      0.70421      .   S
    C195   O711      0.70421      .   S
    C192   O712      0.73601      .   S
    C184   O712      0.73601      .   S
    C192   O713      0.70424      .   S
    C194   O713      0.70424      .   S
    C22    O714      0.54399      .   S
    C132   O714      0.54399      .   S
    C23    O715      0.54393      .   S
    C133   O715      0.54393      .   S
    C196   O716      0.54500      .   S
    C53    O716      0.54500      .   S
    C196   O717      0.69686      .   S
    C194   O717      0.69686      .   S
    C197   O718      0.54504  1_655   S
    C52    O718      0.54504      .   S
    C197   O719      0.69680      .   S
    C195   O719      0.69680      .   S
    C125   O720      0.70224      .   S
    C127   O720      0.70224      .   S
    C124   O721      0.70210      .   S
    C126   O721      0.70210      .   S
    C318   O722      0.67865      .   S
    C182   O722      0.67865      .   S
    C319   O723      0.67782      .   S
    C183   O723      0.67782      .   S
    C42    O724      0.54399      .   S
    C176   O724      0.54399      .   S
    C43    O725      0.54399      .   S
    C177   O725      0.54399      .   S
    C132   O726      0.69776      .   S
    C130   O726      0.69776      .   S
    C133   O727      0.69776      .   S
    C131   O727      0.69776      .   S
    C185   O728      0.67808      .   S
    C315   O728      0.67808      .   S
    C184   O729      0.67823      .   S
    C314   O729      0.67823      .   S
    C195   O730      0.54482      .   S
    C51    O730      0.54482      .   S
    C194   O731      0.54465      .   S
    C50    O731      0.54465      .   S
    C301   O732      0.66138      .   S
    C303   O732      0.66138      .   S
    C301   O733      0.67862      .   S
    C135   O733      0.67862      .   S
    C300   O734      0.66128      .   S
    C302   O734      0.66128      .   S
    C300   O735      0.67854      .   S
    C134   O735      0.67854      .   S
    C44    O736      0.54580      .   S
    C178   O736      0.54580      .   S
    C45    O737      0.54523      .   S
    C179   O737      0.54523      .   S
    C177   O738      0.69645      .   S
    C179   O738      0.69645      .   S
    C177   O739      0.70394      .   S
    C175   O739      0.70394      .   S
    C176   O740      0.69645      .   S
    C178   O740      0.69645      .   S
    C176   O741      0.70347      .   S
    C174   O741      0.70347      .   S
    C126   O742      0.73590  1_455   S
    C135   O742      0.73590      .   S
    C126   O743      0.69681      .   S
    C128   O743      0.69681      .   S
    C127   O744      0.73580      .   S
    C134   O744      0.73580      .   S
    C127   O745      0.70390      .   S
    C129   O745      0.70390      .   S
    C183   O746      0.73551      .   S
    C174   O746      0.73551      .   S
    C183   O747      0.67860      .   S
    C313   O747      0.67860      .   S
    C182   O748      0.73590      .   S
    C175   O748      0.73590  1_655   S
    C182   O749      0.67860      .   S
    C312   O749      0.67860      .   S
    C131   O750      0.69641      .   S
    C129   O750      0.69641      .   S
    C131   O751      0.54512      .   S
    C21    O751      0.54512      .   S
    C130   O752      0.69145      .   S
    C128   O752      0.69145      .   S
    C130   O753      0.54520      .   S
    C20    O753      0.54520      .   S
    C315   O754      0.66138      .   S
    C313   O754      0.66138      .   S
    C314   O755      0.66132      .   S
    C312   O755      0.66132      .   S
    C26    O756      0.65065      .   S
    C146   O756      0.65065      .   S
    C302   O757      0.67835      .   S
    C136   O757      0.67835      .   S
    C303   O758      0.67821      .   S
    C137   O758      0.67821      .   S
    C178   O759      0.69772      .   S
    C180   O759      0.69772      .   S
    C179   O760      0.69772      .   S
    C181   O760      0.69772      .   S
    C27    O761      0.54483      .   S
    C147   O761      0.54483      .   S
    C134   O762      0.67785      .   S
    C306   O762      0.67785      .   S
    C135   O763      0.67784      .   S
    C307   O763      0.67784      .   S
    C174   O764      0.70288      .   S
    C172   O764      0.70288      .   S
    C175   O765      0.70220      .   S
    C173   O765      0.70220      .   S
    C128   O766      0.55626      .   S
    C18    O766      0.55626      .   S
    C129   O767      0.54389      .   S
    C19    O767      0.54389      .   S
    C146   O768      0.69688      .   S
    C148   O768      0.69688      .   S
    C146   O769      0.70424      .   S
    C144   O769      0.70424      .   S
    C147   O770      0.69681      .   S
    C149   O770      0.69681      .   S
    C147   O771      0.70420      .   S
    C145   O771      0.70420      .   S
    C29    O772      0.54512      .   S
    C148   O772      0.54512  1_455   S
    C28    O773      0.54497      .   S
    C149   O773      0.54497      .   S
    C136   O774      0.73606      .   S
    C144   O774      0.73606      .   S
    C136   O775      0.67745      .   S
    C304   O775      0.67745      .   S
    C137   O776      0.73604      .   S
    C145   O776      0.73604      .   S
    C137   O777      0.67745      .   S
    C305   O777      0.67745      .   S
    C181   O778      0.54394      .   S
    C47    O778      0.54394      .   S
    C181   O779      0.70100      .   S
    C171   O779      0.70100      .   S
    C180   O780      0.54394      .   S
    C46    O780      0.54394      .   S
    C180   O781      0.70100      .   S
    C170   O781      0.70100      .   S
    C306   O782      0.66302      .   S
    C304   O782      0.66302      .   S
    C307   O783      0.66301      .   S
    C305   O783      0.66301      .   S
    C172   O784      0.69918      .   S
    C170   O784      0.69918      .   S
    C172   O785      0.54388      .   S
    C40    O785      0.54388      .   S
    C173   O786      0.69913      .   S
    C171   O786      0.69913      .   S
    C173   O787      0.53052      .   S
    C41    O787      0.53052  1_455   S
    C148   O788      0.69724      .   S
    C150   O788      0.69724      .   S
    C149   O789      0.69820      .   S
    C151   O789      0.69820      .   S
    C144   O790      0.70071      .   S
    C142   O790      0.70071      .   S
    C145   O791      0.70065      .   S
    C143   O791      0.70065      .   S
    C170   O792      0.75112      .   S
    C168   O792      0.75112      .   S
    C171   O793      0.74988      .   S
    C169   O793      0.74988      .   S
    C150   O794      0.54417      .   S
    C31    O794      0.54417  1_655   S
    C150   O795      0.70187      .   S
    C140   O795      0.70187      .   S
    C151   O796      0.54373      .   S
    C30    O796      0.54373      .   S
    C151   O797      0.70142      .   S
    C141   O797      0.70142      .   S
    C143   O798      0.54385      .   S
    C25    O798      0.54385      .   S
    C143   O799      0.69974      .   S
    C141   O799      0.69974      .   S
    C142   O800      0.54388      .   S
    C24    O800      0.54388      .   S
    C142   O801      0.69969      .   S
    C140   O801      0.69969      .   S
    C85    O802      0.54483      .   S
    C259   O802      0.54483      .   S
    C84    O803      0.54490      .   S
    C258   O803      0.54490      .   S
    C169   O804      0.63584      .   S
    C361   O804      0.63584      .   S
    C169   O805      0.63734      .   S
    C363   O805      0.63734      .   S
    C168   O806      0.63544      .   S
    C360   O806      0.63544      .   S
    C168   O807      0.63664      .   S
    C362   O807      0.63664      .   S
    C140   O808      0.74783      .   S
    C138   O808      0.74783      .   S
    C141   O809      0.74769      .   S
    C139   O809      0.74769      .   S
    C361   O810      1.23472      .   S
    C3     O810      1.23472      .   S
    C360   O811      1.23463      .   S
    C2     O811      1.23463      .   S
    C363   O812      1.20034  1_655   S
    C2     O812      1.20034      .   S
    C362   O813      1.20030      .   S
    C3     O813      1.20030      .   S
    C83    O814      0.54455      .   S
    C257   O814      0.54455      .   S
    C82    O815      0.54452      .   S
    C256   O815      0.54452      .   S
    C259   O816      0.69681      .   S
    C257   O816      0.69681      .   S
    C259   O817      0.69765      .   S
    C261   O817      0.69765      .   S
    C258   O818      0.69677      .   S
    C256   O818      0.69677      .   S
    C258   O819      0.69766      .   S
    C260   O819      0.69766      .   S
    C87    O820      0.54439      .   S
    C261   O820      0.54439      .   S
    C86    O821      0.54439      .   S
    C260   O821      0.54439      .   S
    C257   O822      0.70429      .   S
    C255   O822      0.70429      .   S
    C256   O823      0.70430      .   S
    C254   O823      0.70430      .   S
    C261   O824      0.70123      .   S
    C251   O824      0.70123      .   S
    C260   O825      0.70125      .   S
    C250   O825      0.70125      .   S
    C139   O826      0.62950      .   S
    C353   O826      0.62950      .   S
    C139   O827      0.65023      .   S
    C355   O827      0.65023      .   S
    C138   O828      0.62944      .   S
    C352   O828      0.62944      .   S
    C138   O829      0.65019      .   S
    C354   O829      0.65019      .   S
    C333   O830      0.66165      .   S
    C310   O830      0.66165  1_455   S
    C333   O831      0.67780  1_545   S
    C263   O831      0.67780      .   S
    C332   O832      0.66163      .   S
    C311   O832      0.66163      .   S
    C332   O833      0.67816  1_545   S
    C262   O833      0.67816      .   S
    C355   O834      1.29694      .   S
    C3     O834      1.29694      .   S
    C354   O835      1.29695      .   S
    C2     O835      1.29695      .   S
    C255   O836      0.73624      .   S
    C263   O836      0.73624      .   S
    C255   O837      0.70125      .   S
    C253   O837      0.70125      .   S
    C254   O838      0.73648      .   S
    C262   O838      0.73648      .   S
    C254   O839      0.70128      .   S
    C252   O839      0.70128      .   S
    C251   O840      0.69952      .   S
    C253   O840      0.69952      .   S
    C251   O841      0.74870      .   S
    C249   O841      0.74870      .   S
    C250   O842      0.69951      .   S
    C252   O842      0.69951      .   S
    C250   O843      0.74869      .   S
    C248   O843      0.74869      .   S
    C3     O844      1.20507      .   S
    C357   O844      1.20507      .   S
    C2     O845      1.20506      .   S
    C356   O845      1.20506      .   S
    C383   O846      0.63833      .   S
    C249   O846      0.63833      .   S
    C382   O847      0.63828      .   S
    C248   O847      0.63828      .   S
    C354   O848      1.30853      .   S
    C7     O848      1.30853  1_654   S
    C355   O849      1.30852      .   S
    C6     O849      1.30852  1_554   S
    C366   O850      1.30935      .   S
    C5     O850      1.30935      .   S
    C367   O851      1.30940      .   S
    C4     O851      1.30940  1_455   S
    C378   O852      1.30926      .   S
    C3     O852      1.30926  1_556   S
    C379   O853      1.30931      .   S
    C2     O853      1.30931  1_456   S
    C390   O854      1.30854      .   S
    C1     O854      1.30854  1_655   S
    C391   O855      1.30852      .   S
    C0     O855      1.30852      .   S
