# CIF file generated by openbabel 2.4.90, see http://openbabel.sf.net
data_I
_chemical_name_common ''
_cell_length_a 10.412
_cell_length_b 18.782
_cell_length_c 27.669
_cell_angle_alpha 90.002
_cell_angle_beta 89.095
_cell_angle_gamma 89.994
_space_group_name_H-M_alt 'P 1'
_space_group_name_Hall 'P 1'
loop_
    _symmetry_equiv_pos_as_xyz
    x,y,z
loop_
    _atom_site_label
    _atom_site_type_symbol
    _atom_site_fract_x
    _atom_site_fract_y
    _atom_site_fract_z
    _atom_site_occupancy
    Zr0     Zr   0.42354   0.89716   0.52308   1.000
    Zr1     Zr   0.92354   0.89716   0.52308   1.000
    Zr2     Zr   0.07640   0.39719   0.97708   1.000
    Zr3     Zr   0.57638   0.39718   0.97708   1.000
    Zr4     Zr   0.07637   0.10280   0.47703   1.000
    Zr5     Zr   0.57636   0.10281   0.47703   1.000
    Zr6     Zr   0.42352   0.60283   0.02305   1.000
    Zr7     Zr   0.92352   0.60284   0.02305   1.000
    N8      N    0.62278   0.25997   0.72010   1.000
    N9      N    0.37697   0.74009   0.27999   1.000
    N10     N    0.37693   0.75990   0.77970   1.000
    N11     N    0.12263   0.25997   0.72010   1.000
    N12     N    0.99983   0.99998   0.99997   1.000
    N13     N    0.12268   0.24002   0.22007   1.000
    N14     N    0.49986   0.49999   0.49999   1.000
    N15     N    0.87698   0.74008   0.27999   1.000
    N16     N    0.99985   0.49999   0.49999   1.000
    N17     N    0.49990   0.00000   0.00001   1.000
    N18     N    0.62283   0.24002   0.22009   1.000
    N19     N    0.87694   0.75990   0.77998   1.000
    C20     C    0.67845   0.59559   0.09784   1.000
    O21     O    0.60041   0.63256   0.15368   1.000
    O22     O    0.76619   0.59352   0.07830   1.000
    O23     O    0.58909   0.60092   0.07645   1.000
    C24     C    0.17845   0.59558   0.09783   1.000
    O25     O    0.08909   0.60092   0.07644   1.000
    O26     O    0.26620   0.59351   0.07828   1.000
    O27     O    0.10041   0.63255   0.15367   1.000
    C28     C    0.17500   0.55851   0.95304   1.000
    O29     O    0.22008   0.61437   0.90022   1.000
    O30     O    0.12594   0.51203   0.96174   1.000
    O31     O    0.08772   0.56344   0.97323   1.000
    O32     O    0.26329   0.57371   0.97118   1.000
    C33     C    0.17409   0.70606   0.00131   1.000
    O34     O    0.26106   0.67869   0.01111   1.000
    O35     O    0.08580   0.67703   0.00385   1.000
    O36     O    0.25868   0.79332   0.99666   1.000
    C37     C    0.82584   0.29393   0.99870   1.000
    O38     O    0.74120   0.20668   0.00335   1.000
    O39     O    0.73887   0.32131   0.98892   1.000
    O40     O    0.91413   0.32297   0.99619   1.000
    C41     C    0.82491   0.44149   0.04714   1.000
    O42     O    0.87397   0.48799   0.03845   1.000
    O43     O    0.91219   0.43658   0.02695   1.000
    O44     O    0.73661   0.42630   0.02897   1.000
    O45     O    0.77977   0.38560   0.09986   1.000
    C46     C    0.32490   0.44149   0.04715   1.000
    O47     O    0.37397   0.48798   0.03845   1.000
    O48     O    0.41218   0.43657   0.02696   1.000
    O49     O    0.23661   0.42630   0.02898   1.000
    O50     O    0.27973   0.38560   0.09986   1.000
    C51     C    0.82154   0.40447   0.90224   1.000
    O52     O    0.91089   0.39912   0.92364   1.000
    O53     O    0.73379   0.40654   0.92181   1.000
    O54     O    0.89946   0.36749   0.84640   1.000
    C55     C    0.32584   0.29392   0.99870   1.000
    O56     O    0.24118   0.20667   0.00334   1.000
    O57     O    0.41413   0.32296   0.99619   1.000
    O58     O    0.23887   0.32131   0.98892   1.000
    C59     C    0.67498   0.55851   0.95304   1.000
    O60     O    0.72008   0.61437   0.90029   1.000
    O61     O    0.62593   0.51202   0.96174   1.000
    O62     O    0.58772   0.56343   0.97323   1.000
    O63     O    0.76328   0.57371   0.97119   1.000
    C64     C    0.32155   0.40448   0.90227   1.000
    O65     O    0.39950   0.36750   0.84643   1.000
    O66     O    0.23380   0.40656   0.92183   1.000
    O67     O    0.41089   0.39912   0.92366   1.000
    C68     C    0.67407   0.70606   0.00129   1.000
    O69     O    0.75865   0.79330   0.99663   1.000
    O70     O    0.58579   0.67702   0.00383   1.000
    O71     O    0.76105   0.67869   0.01110   1.000
    C72     C    0.67855   0.90441   0.59790   1.000
    O73     O    0.58918   0.89908   0.57649   1.000
    O74     O    0.60045   0.86743   0.65364   1.000
    O75     O    0.76627   0.90647   0.57836   1.000
    C76     C    0.17856   0.90441   0.59791   1.000
    O77     O    0.08919   0.89908   0.57649   1.000
    O78     O    0.10046   0.86744   0.65372   1.000
    O79     O    0.26629   0.90647   0.57836   1.000
    C80     C    0.82148   0.09550   0.40222   1.000
    O81     O    0.73373   0.09344   0.42178   1.000
    O82     O    0.89943   0.13249   0.34638   1.000
    O83     O    0.91083   0.10086   0.42361   1.000
    C84     C    0.67501   0.94146   0.45305   1.000
    O85     O    0.62594   0.98795   0.46173   1.000
    O86     O    0.58774   0.93654   0.47325   1.000
    O87     O    0.72011   0.88561   0.40030   1.000
    O88     O    0.76330   0.92627   0.47120   1.000
    C89     C    0.82583   0.20605   0.49869   1.000
    O90     O    0.91412   0.17701   0.49617   1.000
    O91     O    0.74118   0.29330   0.50329   1.000
    O92     O    0.73885   0.17867   0.48890   1.000
    C93     C    0.32583   0.20605   0.49849   1.000
    O94     O    0.23886   0.17867   0.48880   1.000
    O95     O    0.41412   0.17701   0.49607   1.000
    O96     O    0.24118   0.29330   0.50317   1.000
    C97     C    0.32148   0.09551   0.40221   1.000
    O98     O    0.23374   0.09344   0.42177   1.000
    O99     O    0.39947   0.13249   0.34638   1.000
    O100    O    0.41083   0.10086   0.42361   1.000
    C101    C    0.17502   0.94146   0.45307   1.000
    O102    O    0.26331   0.92627   0.47121   1.000
    O103    O    0.12595   0.98795   0.46174   1.000
    O104    O    0.08774   0.93654   0.47326   1.000
    O105    O    0.22011   0.88561   0.40031   1.000
    C106    C    0.82489   0.05851   0.54710   1.000
    O107    O    0.73659   0.07371   0.52893   1.000
    O108    O    0.87397   0.01202   0.53842   1.000
    O109    O    0.91217   0.06343   0.52691   1.000
    O110    O    0.77974   0.11440   0.59983   1.000
    C111    C    0.32489   0.05851   0.54710   1.000
    O112    O    0.37397   0.01202   0.53842   1.000
    O113    O    0.41217   0.06343   0.52691   1.000
    O114    O    0.27970   0.11440   0.59982   1.000
    O115    O    0.23660   0.07370   0.52893   1.000
    C116    C    0.67409   0.79395   0.50130   1.000
    O117    O    0.75867   0.70669   0.49665   1.000
    O118    O    0.58579   0.82298   0.50384   1.000
    O119    O    0.76106   0.82131   0.51111   1.000
    C120    C    0.17409   0.79394   0.50132   1.000
    O121    O    0.25867   0.70669   0.49666   1.000
    O122    O    0.26107   0.82131   0.51112   1.000
    O123    O    0.08580   0.82298   0.50387   1.000
loop_
    _geom_bond_atom_site_label_1
    _geom_bond_atom_site_label_2
    _geom_bond_distance
    _geom_bond_site_symmetry_2
    _ccdc_geom_bond_type
    C20    O21       1.86797      .   S
    N9     O21       4.63110      .   S
    C20    O22       1.05501      .   S
    Zr7    O22       2.22973      .   S
    C20    O23       1.11512      .   S
    Zr6    O23       2.28834      .   S
    C24    O25       1.11500      .   S
    Zr7    O25       2.28823  1_655   S
    C24    O26       1.05505      .   S
    Zr6    O26       2.22931      .   S
    C24    O27       1.86818      .   S
    N15    O27       4.63134  1_655   S
    C28    O29       1.85353      .   S
    N10    O29       4.59213      .   S
    C28    O30       1.03788      .   S
    Zr2    O30       2.25653      .   S
    C28    O31       1.06310      .   S
    Zr7    O31       2.30134  1_654   S
    C28    O32       1.09232      .   S
    Zr6    O32       2.28431  1_554   S
    C33    O34       1.07960      .   S
    Zr6    O34       2.24006      .   S
    C33    O35       1.07029      .   S
    Zr7    O35       2.24736  1_655   S
    C33    O36       1.86404  1_554   S
    N17    O36       4.62559  1_544   S
    C37    O38       1.86416  1_556   S
    N17    O38       4.62586      .   S
    C37    O39       1.07947      .   S
    Zr3    O39       2.23992      .   S
    C37    O40       1.07029      .   S
    Zr2    O40       2.24714  1_455   S
    C41    O42       1.03813      .   S
    Zr7    O42       2.25706      .   S
    C41    O43       1.06320      .   S
    Zr2    O43       2.30211  1_456   S
    C41    O44       1.09263      .   S
    Zr3    O44       2.28472  1_556   S
    C41    O45       1.85173      .   S
    N18    O45       4.58732      .   S
    C46    O47       1.03811      .   S
    Zr6    O47       2.25704      .   S
    C46    O48       1.06324      .   S
    Zr3    O48       2.30212  1_556   S
    C46    O49       1.09259      .   S
    Zr2    O49       2.28466  1_556   S
    C46    O50       1.85165      .   S
    N13    O50       4.58733      .   S
    C51    O52       1.11518      .   S
    Zr2    O52       2.28860  1_455   S
    C51    O53       1.05554      .   S
    Zr3    O53       2.23073      .   S
    C51    O54       1.86748      .   S
    N11    O54       4.62946  1_455   S
    C55    O56       1.86433  1_556   S
    N12    O56       4.62629  1_666   S
    C55    O57       1.07023      .   S
    Zr3    O57       2.24706      .   S
    C55    O58       1.07950      .   S
    Zr2    O58       2.23996      .   S
    C59    O60       1.85206      .   S
    N19    O60       4.58808      .   S
    C59    O61       1.03792      .   S
    Zr3    O61       2.25658      .   S
    C59    O62       1.06304      .   S
    Zr6    O62       2.30125  1_554   S
    C59    O63       1.09237      .   S
    Zr7    O63       2.28435  1_554   S
    C64    O65       1.86780      .   S
    N8     O65       4.63068      .   S
    C64    O66       1.05532      .   S
    Zr2    O66       2.23034      .   S
    C64    O67       1.11489      .   S
    Zr3    O67       2.28820      .   S
    C68    O69       1.86389  1_554   S
    N12    O69       4.62523      .   S
    C68    O70       1.07029      .   S
    Zr6    O70       2.24738      .   S
    C68    O71       1.07963      .   S
    Zr7    O71       2.24005      .   S
    C72    O73       1.11549      .   S
    Zr0    O73       2.28899      .   S
    C72    O74       1.86636      .   S
    N10    O74       4.62661      .   S
    C72    O75       1.05478      .   S
    Zr1    O75       2.22977      .   S
    C76    O77       1.11556      .   S
    Zr1    O77       2.28922  1_655   S
    C76    O78       1.86791      .   S
    N19    O78       4.63081  1_655   S
    C76    O79       1.05479      .   S
    Zr0    O79       2.22984      .   S
    C80    O81       1.05520      .   S
    Zr5    O81       2.23025      .   S
    C80    O82       1.86777      .   S
    N13    O82       4.63049  1_455   S
    C80    O83       1.11506      .   S
    Zr4    O83       2.28857  1_455   S
    C84    O85       1.03789      .   S
    Zr5    O85       2.25648  1_545   S
    C84    O86       1.06325      .   S
    Zr0    O86       2.30150      .   S
    C84    O87       1.85196      .   S
    N15    O87       4.58750      .   S
    C84    O88       1.09245      .   S
    Zr1    O88       2.28436      .   S
    C89    O90       1.07017      .   S
    Zr4    O90       2.24683  1_455   S
    C89    O91       1.86401      .   S
    N14    O91       4.62572      .   S
    C89    O92       1.07965      .   S
    Zr5    O92       2.24027      .   S
    C93    O94       1.07893      .   S
    Zr4    O94       2.23980      .   S
    C93    O95       1.06998      .   S
    Zr5    O95       2.24609      .   S
    C93    O96       1.86418      .   S
    N16    O96       4.62570  1_655   S
    C97    O98       1.05519      .   S
    Zr4    O98       2.23028      .   S
    C97    O99       1.86782      .   S
    N18    O99       4.63066      .   S
    C97    O100      1.11508      .   S
    Zr5    O100      2.28856      .   S
    C101   O102      1.09229      .   S
    Zr0    O102      2.28422      .   S
    C101   O103      1.03782      .   S
    Zr4    O103      2.25640  1_545   S
    C101   O104      1.06315      .   S
    Zr1    O104      2.30141  1_655   S
    C101   O105      1.85199      .   S
    N9     O105      4.58778      .   S
    C106   O107      1.09262      .   S
    Zr5    O107      2.28467      .   S
    C106   O108      1.03801      .   S
    Zr1    O108      2.25682  1_565   S
    C106   O109      1.06323      .   S
    Zr4    O109      2.30223  1_455   S
    C106   O110      1.85190      .   S
    N8     O110      4.58770      .   S
    C111   O112      1.03800      .   S
    Zr0    O112      2.25684  1_565   S
    C111   O113      1.06323      .   S
    Zr5    O113      2.30220      .   S
    C111   O114      1.85182      .   S
    N11    O114      4.58825      .   S
    C111   O115      1.09258      .   S
    Zr4    O115      2.28466      .   S
    C116   O117      1.86382      .   S
    N16    O117      4.62513      .   S
    C116   O118      1.07018      .   S
    Zr0    O118      2.24705      .   S
    C116   O119      1.07977      .   S
    Zr1    O119      2.24036      .   S
    C120   O121      1.86385      .   S
    N14    O121      4.62515      .   S
    C120   O122      1.07970      .   S
    Zr0    O122      2.24031      .   S
    C120   O123      1.07020      .   S
    Zr1    O123      2.24695  1_655   S
