# CIF file generated by openbabel 2.4.90, see http://openbabel.sf.net
data_I
_chemical_name_common ''
_cell_length_a 10.95
_cell_length_b 13.18
_cell_length_c 13.821
_cell_angle_alpha 61.782
_cell_angle_beta 71.832
_cell_angle_gamma 89.868
_space_group_name_H-M_alt 'P 1'
_space_group_name_Hall 'P 1'
loop_
    _symmetry_equiv_pos_as_xyz
    x,y,z
loop_
    _atom_site_label
    _atom_site_type_symbol
    _atom_site_fract_x
    _atom_site_fract_y
    _atom_site_fract_z
    _atom_site_occupancy
    Cd0     Cd   0.25019   0.08440   0.99869   1.000
    H1      H    0.90229   0.78444   0.86710   1.000
    H2      H    0.89415   0.71126   0.73045   1.000
    H3      H    0.70622   0.74129   0.65852   1.000
    H4      H    0.55220   0.90370   0.86812   1.000
    H5      H    0.40638   0.81276   0.79125   1.000
    H6      H    0.50358   0.94423   0.66504   1.000
    H7      H    0.54259   0.74893   0.48199   1.000
    H8      H    0.41521   0.79584   0.34996   1.000
    H9      H    0.22429   0.89629   0.37462   1.000
    H10     H    0.29403   0.90958   0.65951   1.000
    H11     H    0.11120   0.98840   0.60634   1.000
    H12     H    0.59904   0.65228   0.13127   1.000
    H13     H    0.60791   0.44302   0.26564   1.000
    H14     H    0.79561   0.40012   0.33783   1.000
    H15     H    0.94823   0.77007   0.13245   1.000
    H16     H    0.09575   0.60101   0.20679   1.000
    H17     H    0.99983   0.61014   0.33191   1.000
    H18     H    0.95644   0.23225   0.51951   1.000
    H19     H    0.08526   0.14857   0.65049   1.000
    H20     H    0.27621   0.27283   0.62548   1.000
    H21     H    0.20742   0.56822   0.33946   1.000
    H22     H    0.39032   0.59383   0.39249   1.000
    H23     H    0.09799   0.21528   0.13265   1.000
    H24     H    0.10638   0.28864   0.26912   1.000
    H25     H    0.29472   0.25908   0.34052   1.000
    H26     H    0.44863   0.09687   0.13071   1.000
    H27     H    0.59453   0.18687   0.20727   1.000
    H28     H    0.49689   0.05648   0.33468   1.000
    H29     H    0.45844   0.25247   0.51599   1.000
    H30     H    0.58457   0.20457   0.64911   1.000
    Cd31    Cd   0.75007   0.91560   0.00080   1.000
    H32     H    0.77511   0.10351   0.62528   1.000
    H33     H    0.70745   0.09162   0.33899   1.000
    H34     H    0.88939   0.01190   0.39322   1.000
    H35     H    0.40106   0.34787   0.86758   1.000
    H36     H    0.39178   0.55698   0.73311   1.000
    H37     H    0.20346   0.59949   0.66176   1.000
    H38     H    0.05111   0.22949   0.86805   1.000
    H39     H    0.90520   0.40069   0.79276   1.000
    H40     H    0.00071   0.38964   0.66870   1.000
    H41     H    0.04211   0.76720   0.48175   1.000
    H42     H    0.91557   0.85177   0.34899   1.000
    H43     H    0.72446   0.72728   0.37451   1.000
    H44     H    0.79426   0.43210   0.66000   1.000
    H45     H    0.61093   0.40628   0.60746   1.000
    C46     C    0.82135   0.79307   0.83518   1.000
    C47     C    0.81628   0.75317   0.75948   1.000
    C48     C    0.71148   0.76953   0.71969   1.000
    C49     C    0.61374   0.82464   0.75771   1.000
    C50     C    0.62585   0.86075   0.83505   1.000
    C51     C    0.49942   0.84899   0.71599   1.000
    C52     C    0.42763   0.82703   0.57766   1.000
    C53     C    0.46007   0.79397   0.49134   1.000
    C54     C    0.38696   0.81913   0.41879   1.000
    C55     C    0.28009   0.87498   0.43249   1.000
    C56     C    0.24501   0.90588   0.52085   1.000
    C57     C    0.32070   0.88339   0.59273   1.000
    C58     C    0.13069   0.96004   0.54068   1.000
    C59     C    0.90873   0.01778   0.12165   1.000
    C60     C    0.67994   0.62857   0.16320   1.000
    C61     C    0.68546   0.51326   0.23759   1.000
    C62     C    0.79012   0.48933   0.27754   1.000
    C63     C    0.88754   0.58153   0.24066   1.000
    C64     C    0.87490   0.69471   0.16457   1.000
    C65     C    0.00283   0.56422   0.28223   1.000
    C66     C    0.07333   0.40517   0.42197   1.000
    C67     C    0.04058   0.28678   0.50873   1.000
    C68     C    0.11353   0.23994   0.58146   1.000
    C69     C    0.22058   0.30899   0.56746   1.000
    C70     C    0.25588   0.42725   0.47882   1.000
    C71     C    0.18049   0.47604   0.40659   1.000
    C72     C    0.37031   0.50064   0.45883   1.000
    C73     C    0.59157   0.13843   0.87848   1.000
    C74     C    0.17908   0.20683   0.16438   1.000
    C75     C    0.18431   0.24686   0.23995   1.000
    C76     C    0.28928   0.23070   0.27949   1.000
    C77     C    0.38717   0.17587   0.24118   1.000
    C78     C    0.37488   0.13961   0.16400   1.000
    C79     C    0.50166   0.15169   0.28268   1.000
    C80     C    0.57375   0.17435   0.42049   1.000
    C81     C    0.54080   0.20718   0.50698   1.000
    C82     C    0.61322   0.18146   0.58016   1.000
    C83     C    0.71987   0.12526   0.56693   1.000
    C84     C    0.75544   0.09458   0.47841   1.000
    C85     C    0.68043   0.11762   0.40592   1.000
    C86     C    0.86966   0.04020   0.45894   1.000
    C87     C    0.09111   0.98220   0.87836   1.000
    C88     C    0.31989   0.37142   0.83601   1.000
    C89     C    0.31414   0.48663   0.76158   1.000
    C90     C    0.20913   0.51035   0.72208   1.000
    C91     C    0.11165   0.41802   0.75940   1.000
    C92     C    0.12450   0.30494   0.83555   1.000
    C93     C    0.99828   0.43641   0.71751   1.000
    C94     C    0.92833   0.59526   0.57716   1.000
    C95     C    0.96081   0.71365   0.49041   1.000
    C96     C    0.88749   0.76039   0.41802   1.000
    C97     C    0.78033   0.69123   0.43232   1.000
    C98     C    0.74527   0.57298   0.52098   1.000
    C99     C    0.82100   0.52429   0.59290   1.000
    C100    C    0.63080   0.49948   0.54116   1.000
    C101    C    0.40872   0.86156   0.12094   1.000
    S102    S    0.75095   0.97540   0.16554   1.000
    S103    S    0.74963   0.13989   0.83781   1.000
    S104    S    0.24897   0.02447   0.83418   1.000
    S105    S    0.25066   0.86013   0.16172   1.000
    N106    N    0.72736   0.84589   0.87274   1.000
    N107    N    0.05159   0.97351   0.48388   1.000
    N108    N    0.02231   0.04852   0.09254   1.000
    N109    N    0.77352   0.71813   0.12675   1.000
    N110    N    0.44882   0.45776   0.51637   1.000
    N111    N    0.47802   0.14040   0.90490   1.000
    N112    N    0.27318   0.15423   0.12657   1.000
    N113    N    0.94843   0.02652   0.51607   1.000
    N114    N    0.97791   0.95137   0.90736   1.000
    N115    N    0.22623   0.28173   0.87291   1.000
    N116    N    0.55218   0.54232   0.48374   1.000
    N117    N    0.52227   0.85959   0.09444   1.000
    O118    O    0.50655   0.79794   0.64362   1.000
    O119    O    0.99456   0.44152   0.35586   1.000
    O120    O    0.49572   0.20417   0.35368   1.000
    O121    O    0.00764   0.55904   0.64276   1.000
loop_
    _geom_bond_atom_site_label_1
    _geom_bond_atom_site_label_2
    _geom_bond_distance
    _geom_bond_site_symmetry_2
    _ccdc_geom_bond_type
    Cd31   N117      2.35243      .   S
    Cd31   N109      2.42100      .   S
    Cd31   S102      2.74145      .   S
    Cd31   S103      2.74277  1_564   S
    Cd31   N106      2.41903  1_554   S
    Cd31   N114      2.35262  1_554   S
    N108   C59       1.18698  1_455   S
    N108   Cd0       2.35358  1_554   S
    N117   C101      1.18558      .   S
    C101   S105      1.64173      .   S
    C59    S102      1.64183  1_545   S
    N112   C78       1.34492      .   S
    N112   C74       1.34861      .   S
    N112   Cd0       2.41899  1_554   S
    N109   C60       1.34858      .   S
    N109   C64       1.34483      .   S
    H26    C78       1.09206      .   S
    H12    C60       1.09051      .   S
    H15    C64       1.09210      .   S
    H23    C74       1.09050      .   S
    S105   Cd0       2.74292  1_564   S
    C60    C61       1.38958      .   S
    C78    C77       1.39875      .   S
    C74    C75       1.38960      .   S
    C64    C63       1.39884      .   S
    H16    C65       1.10454      .   S
    H27    C79       1.10430      .   S
    C61    H13       1.08965      .   S
    C61    C62       1.39506      .   S
    C75    H24       1.08962      .   S
    C75    C76       1.39492      .   S
    C63    C62       1.39838      .   S
    C63    C65       1.51751  1_655   S
    C77    C76       1.39847      .   S
    C77    C79       1.50856      .   S
    C62    H14       1.08848      .   S
    C76    H25       1.08851      .   S
    C65    H17       1.10358  1_455   S
    C65    O119      1.43041  1_455   S
    C79    H28       1.10367      .   S
    C79    O120      1.43091      .   S
    H33    C85       1.09044      .   S
    H21    C71       1.09037      .   S
    H42    C96       1.08962      .   S
    H8     C54       1.08962      .   S
    O120   C80       1.37274      .   S
    O119   C66       1.37262  1_655   S
    H43    C97       1.08767      .   S
    H9     C55       1.08781      .   S
    H22    C72       1.09922      .   S
    H34    C86       1.09923      .   S
    C85    C80       1.39857      .   S
    C85    C84       1.41255      .   S
    C71    C66       1.39869      .   S
    C71    C70       1.41272      .   S
    C96    C97       1.39166      .   S
    C96    C95       1.39312      .   S
    C54    C55       1.39168      .   S
    C54    C53       1.39319      .   S
    C80    C81       1.40210      .   S
    C66    C67       1.40231      .   S
    C97    C98       1.40764      .   S
    C55    C56       1.40779      .   S
    C72    C70       1.45578      .   S
    C72    N110      1.29993      .   S
    C86    C84       1.45555      .   S
    C86    N113      1.29983      .   S
    C84    C83       1.40783      .   S
    C70    C69       1.40767      .   S
    H41    C95       1.07779  1_455   S
    H7     C53       1.08752      .   S
    N116   N110      1.39242      .   S
    N116   C100      1.29991      .   S
    N107   N113      1.39240  1_465   S
    N107   C58       1.29983      .   S
    C95    C94       1.40230      .   S
    C53    C52       1.40223      .   S
    C81    H29       1.08753      .   S
    C81    C82       1.39328      .   S
    C67    H18       1.09725  1_455   S
    C67    C68       1.39320      .   S
    C56    C58       1.45561      .   S
    C56    C57       1.41268      .   S
    C98    C100      1.45586      .   S
    C98    C99       1.41275      .   S
    C58    H11       1.09924      .   S
    C100   H45       1.09923      .   S
    C83    C82       1.39169      .   S
    C83    H32       1.08779      .   S
    C69    C68       1.39167      .   S
    C69    H20       1.08771      .   S
    C94    C99       1.39873      .   S
    C94    O121      1.37265  1_655   S
    C52    C57       1.39863      .   S
    C52    O118      1.37261      .   S
    C82    H30       1.08963      .   S
    C68    H19       1.08964      .   S
    C57    H10       1.09043      .   S
    C99    H44       1.09034      .   S
    O121   C93       1.43029  1_455   S
    O118   C51       1.43054      .   S
    H3     C48       1.08851      .   S
    H37    C90       1.08850      .   S
    H6     C51       1.10367      .   S
    H40    C93       1.10353  1_455   S
    C51    C49       1.50857      .   S
    C51    H5        1.10438      .   S
    C93    C91       1.49967  1_655   S
    C93    H39       1.10463      .   S
    C48    C49       1.39845      .   S
    C48    C47       1.39493      .   S
    C90    C91       1.39844      .   S
    C90    C89       1.39502      .   S
    H2     C47       1.08963      .   S
    H36    C89       1.08965      .   S
    C49    C50       1.39875      .   S
    C91    C92       1.39885      .   S
    C47    C46       1.38960      .   S
    C89    C88       1.38959      .   S
    S104   C87       1.64189  1_545   S
    S104   Cd0       2.74049      .   S
    C50    H4        1.09206      .   S
    C50    N106      1.34492      .   S
    C46    H1        1.09049      .   S
    C46    N106      1.34863      .   S
    C92    H38       1.09208      .   S
    C92    N115      1.34488      .   S
    C88    H35       1.09051      .   S
    C88    N115      1.34856      .   S
    S103   C73       1.64176      .   S
    N115   Cd0       2.42093      .   S
    C87    N114      1.18349  1_455   S
    C73    N111      1.18560      .   S
    N111   Cd0       2.35282      .   S
