# CIF file generated by openbabel 2.4.90, see http://openbabel.sf.net
data_I
_chemical_name_common ''
_cell_length_a 10.95
_cell_length_b 13.18
_cell_length_c 13.821
_cell_angle_alpha 61.782
_cell_angle_beta 71.832
_cell_angle_gamma 89.868
_space_group_name_H-M_alt 'P 1'
_space_group_name_Hall 'P 1'
loop_
    _symmetry_equiv_pos_as_xyz
    x,y,z
loop_
    _atom_site_label
    _atom_site_type_symbol
    _atom_site_fract_x
    _atom_site_fract_y
    _atom_site_fract_z
    _atom_site_occupancy
    C0      C    0.75007   0.91560   0.00080   1.000
    C1      C    0.25019   0.08440   0.99869   1.000
    C2      C    0.90229   0.78444   0.86710   1.000
    C3      C    0.89415   0.71126   0.73045   1.000
    C4      C    0.70622   0.74129   0.65852   1.000
    C5      C    0.55220   0.90370   0.86812   1.000
    C6      C    0.40638   0.81276   0.79125   1.000
    C7      C    0.50358   0.94423   0.66504   1.000
    C8      C    0.54259   0.74893   0.48199   1.000
    C9      C    0.41521   0.79584   0.34996   1.000
    C10     C    0.22429   0.89629   0.37462   1.000
    C11     C    0.29403   0.90958   0.65951   1.000
    C12     C    0.11120   0.98840   0.60634   1.000
    C13     C    0.59904   0.65228   0.13127   1.000
    C14     C    0.60791   0.44302   0.26564   1.000
    C15     C    0.79561   0.40012   0.33783   1.000
    C16     C    0.94823   0.77007   0.13245   1.000
    C17     C    0.09575   0.60101   0.20679   1.000
    C18     C    0.99983   0.61014   0.33191   1.000
    C19     C    0.95644   0.23225   0.51951   1.000
    C20     C    0.08526   0.14857   0.65049   1.000
    C21     C    0.27621   0.27283   0.62548   1.000
    C22     C    0.20742   0.56822   0.33946   1.000
    C23     C    0.39032   0.59383   0.39249   1.000
    C24     C    0.09799   0.21528   0.13265   1.000
    C25     C    0.10638   0.28864   0.26912   1.000
    C26     C    0.29472   0.25908   0.34052   1.000
    C27     C    0.44863   0.09687   0.13071   1.000
    C28     C    0.59453   0.18687   0.20727   1.000
    C29     C    0.49689   0.05648   0.33468   1.000
    C30     C    0.45844   0.25247   0.51599   1.000
    C31     C    0.58457   0.20457   0.64911   1.000
    C32     C    0.77511   0.10351   0.62528   1.000
    C33     C    0.70745   0.09162   0.33899   1.000
    C34     C    0.88939   0.01190   0.39322   1.000
    C35     C    0.40106   0.34787   0.86758   1.000
    C36     C    0.39178   0.55698   0.73311   1.000
    C37     C    0.20346   0.59949   0.66176   1.000
    C38     C    0.05111   0.22949   0.86805   1.000
    C39     C    0.90520   0.40069   0.79276   1.000
    C40     C    0.00071   0.38964   0.66870   1.000
    C41     C    0.04211   0.76720   0.48175   1.000
    C42     C    0.91557   0.85177   0.34899   1.000
    C43     C    0.72446   0.72728   0.37451   1.000
    C44     C    0.79426   0.43210   0.66000   1.000
    C45     C    0.61093   0.40628   0.60746   1.000
    C46     C    0.82135   0.79307   0.83518   1.000
    C47     C    0.81628   0.75317   0.75948   1.000
    C48     C    0.71148   0.76953   0.71969   1.000
    C49     C    0.61374   0.82464   0.75771   1.000
    C50     C    0.62585   0.86075   0.83505   1.000
    C51     C    0.49942   0.84899   0.71599   1.000
    C52     C    0.42763   0.82703   0.57766   1.000
    C53     C    0.46007   0.79397   0.49134   1.000
    C54     C    0.38696   0.81913   0.41879   1.000
    C55     C    0.28009   0.87498   0.43249   1.000
    C56     C    0.24501   0.90588   0.52085   1.000
    C57     C    0.32070   0.88339   0.59273   1.000
    C58     C    0.13069   0.96004   0.54068   1.000
    C59     C    0.90873   0.01778   0.12165   1.000
    C60     C    0.67994   0.62857   0.16320   1.000
    C61     C    0.68546   0.51326   0.23759   1.000
    C62     C    0.79012   0.48933   0.27754   1.000
    C63     C    0.88754   0.58153   0.24066   1.000
    C64     C    0.87490   0.69471   0.16457   1.000
    C65     C    0.00283   0.56422   0.28223   1.000
    C66     C    0.07333   0.40517   0.42197   1.000
    C67     C    0.04058   0.28678   0.50873   1.000
    C68     C    0.11353   0.23994   0.58146   1.000
    C69     C    0.22058   0.30899   0.56746   1.000
    C70     C    0.25588   0.42725   0.47882   1.000
    C71     C    0.18049   0.47604   0.40659   1.000
    C72     C    0.37031   0.50064   0.45883   1.000
    C73     C    0.59157   0.13843   0.87848   1.000
    C74     C    0.17908   0.20683   0.16438   1.000
    C75     C    0.18431   0.24686   0.23995   1.000
    C76     C    0.28928   0.23070   0.27949   1.000
    C77     C    0.38717   0.17587   0.24118   1.000
    C78     C    0.37488   0.13961   0.16400   1.000
    C79     C    0.50166   0.15169   0.28268   1.000
    C80     C    0.57375   0.17435   0.42049   1.000
    C81     C    0.54080   0.20718   0.50698   1.000
    C82     C    0.61322   0.18146   0.58016   1.000
    C83     C    0.71987   0.12526   0.56693   1.000
    C84     C    0.75544   0.09458   0.47841   1.000
    C85     C    0.68043   0.11762   0.40592   1.000
    C86     C    0.86966   0.04020   0.45894   1.000
    C87     C    0.09111   0.98220   0.87836   1.000
    C88     C    0.31989   0.37142   0.83601   1.000
    C89     C    0.31414   0.48663   0.76158   1.000
    C90     C    0.20913   0.51035   0.72208   1.000
    C91     C    0.11165   0.41802   0.75940   1.000
    C92     C    0.12450   0.30494   0.83555   1.000
    C93     C    0.99828   0.43641   0.71751   1.000
    C94     C    0.92833   0.59526   0.57716   1.000
    C95     C    0.96081   0.71365   0.49041   1.000
    C96     C    0.88749   0.76039   0.41802   1.000
    C97     C    0.78033   0.69123   0.43232   1.000
    C98     C    0.74527   0.57298   0.52098   1.000
    C99     C    0.82100   0.52429   0.59290   1.000
    C100    C    0.63080   0.49948   0.54116   1.000
    C101    C    0.40872   0.86156   0.12094   1.000
    C102    C    0.75095   0.97540   0.16554   1.000
    C103    C    0.74963   0.13989   0.83781   1.000
    C104    C    0.24897   0.02447   0.83418   1.000
    C105    C    0.25066   0.86013   0.16172   1.000
    C106    C    0.72736   0.84589   0.87274   1.000
    C107    C    0.05159   0.97351   0.48388   1.000
    C108    C    0.02231   0.04852   0.09254   1.000
    C109    C    0.77352   0.71813   0.12675   1.000
    C110    C    0.44882   0.45776   0.51637   1.000
    C111    C    0.47802   0.14040   0.90490   1.000
    C112    C    0.27318   0.15423   0.12657   1.000
    C113    C    0.94843   0.02652   0.51607   1.000
    C114    C    0.97791   0.95137   0.90736   1.000
    C115    C    0.22623   0.28173   0.87291   1.000
    C116    C    0.55218   0.54232   0.48374   1.000
    C117    C    0.52227   0.85959   0.09444   1.000
    C118    C    0.50655   0.79794   0.64362   1.000
    C119    C    0.99456   0.44152   0.35586   1.000
    C120    C    0.49572   0.20417   0.35368   1.000
    C121    C    0.00764   0.55904   0.64276   1.000
    O122    O    0.63617   0.88759   0.04762   1.000
    O123    O    0.76180   0.81687   0.06378   1.000
    O124    O    0.75051   0.94550   0.08317   1.000
    O125    O    0.74985   0.02775   0.91931   1.000
    O126    O    0.73871   0.88075   0.93677   1.000
    O127    O    0.86399   0.93348   0.95408   1.000
    O128    O    0.96552   0.03315   0.10709   1.000
    O129    O    0.13625   0.06646   0.04561   1.000
    O130    O    0.46550   0.86058   0.10769   1.000
    O131    O    0.32969   0.86085   0.14133   1.000
    O132    O    0.82984   0.99659   0.14359   1.000
    O133    O    0.32403   0.14692   0.14528   1.000
    O134    O    0.22613   0.18053   0.14548   1.000
    O135    O    0.26168   0.11932   0.06263   1.000
    O136    O    0.72673   0.67335   0.14498   1.000
    O137    O    0.82421   0.70642   0.14566   1.000
    O138    O    0.41176   0.11824   0.14735   1.000
    O139    O    0.63949   0.64042   0.14723   1.000
    O140    O    0.91157   0.73239   0.14851   1.000
    O141    O    0.13853   0.21105   0.14852   1.000
    O142    O    0.25043   0.97226   0.08020   1.000
    O143    O    0.68270   0.57092   0.20039   1.000
    O144    O    0.38102   0.15774   0.20259   1.000
    O145    O    0.18169   0.22684   0.20216   1.000
    O146    O    0.88122   0.63812   0.20262   1.000
    O147    O    0.04929   0.58262   0.24451   1.000
    O148    O    0.54809   0.16928   0.24497   1.000
    O149    O    0.64669   0.47814   0.25161   1.000
    O150    O    0.73779   0.50130   0.25756   1.000
    O151    O    0.14534   0.26775   0.25453   1.000
    O152    O    0.23680   0.23878   0.25972   1.000
    O153    O    0.83883   0.53543   0.25910   1.000
    O154    O    0.94518   0.57287   0.26144   1.000
    O155    O    0.33823   0.20328   0.26034   1.000
    O156    O    0.44441   0.16378   0.26193   1.000
    O157    O    0.79287   0.44472   0.30769   1.000
    O158    O    0.29200   0.24489   0.31000   1.000
    O159    O    0.00133   0.58718   0.30707   1.000
    O160    O    0.99869   0.50287   0.31904   1.000
    O161    O    0.49928   0.10408   0.30868   1.000
    O162    O    0.49869   0.17793   0.31818   1.000
    O163    O    0.69394   0.10462   0.37245   1.000
    O164    O    0.19395   0.52213   0.37303   1.000
    O165    O    0.90153   0.80608   0.38350   1.000
    O166    O    0.40108   0.80749   0.38438   1.000
    O167    O    0.53473   0.18926   0.38708   1.000
    O168    O    0.03394   0.42335   0.38891   1.000
    O169    O    0.75239   0.70926   0.40342   1.000
    O170    O    0.25219   0.88563   0.40355   1.000
    O171    O    0.38032   0.54724   0.42566   1.000
    O172    O    0.87952   0.02605   0.42608   1.000
    O173    O    0.62709   0.14598   0.41320   1.000
    O174    O    0.71794   0.10610   0.44216   1.000
    O175    O    0.12691   0.44061   0.41428   1.000
    O176    O    0.21818   0.45164   0.44271   1.000
    O177    O    0.83391   0.72581   0.42517   1.000
    O178    O    0.92415   0.73702   0.45421   1.000
    O179    O    0.33352   0.84705   0.42564   1.000
    O180    O    0.42352   0.80655   0.45507   1.000
    O181    O    0.55727   0.19077   0.46373   1.000
    O182    O    0.05696   0.34598   0.46535   1.000
    O183    O    0.76280   0.63211   0.47665   1.000
    O184    O    0.26255   0.89043   0.47667   1.000
    O185    O    0.31309   0.46394   0.46883   1.000
    O186    O    0.40956   0.47920   0.48760   1.000
    O187    O    0.81255   0.06739   0.46868   1.000
    O188    O    0.90904   0.03336   0.48751   1.000
    O189    O    0.73766   0.10992   0.52267   1.000
    O190    O    0.23823   0.36812   0.52314   1.000
    O191    O    0.00146   0.74043   0.48608   1.000
    O192    O    0.50133   0.77145   0.48667   1.000
    O193    O    0.50050   0.50004   0.50005   1.000
    O194    O    0.59149   0.52090   0.51245   1.000
    O195    O    0.00001   0.00002   0.49998   1.000
    O196    O    0.09114   0.96678   0.51228   1.000
    O197    O    0.94457   0.65446   0.53378   1.000
    O198    O    0.44385   0.81050   0.53450   1.000
    O199    O    0.49962   0.22982   0.51148   1.000
    O200    O    0.57701   0.19432   0.54357   1.000
    O201    O    0.99851   0.25951   0.51412   1.000
    O202    O    0.07705   0.26336   0.54510   1.000
    O203    O    0.18785   0.93296   0.53077   1.000
    O204    O    0.28286   0.89463   0.55679   1.000
    O205    O    0.68804   0.53623   0.53107   1.000
    O206    O    0.78314   0.54864   0.55694   1.000
    O207    O    0.12094   0.97422   0.57351   1.000
    O208    O    0.62087   0.45288   0.57431   1.000
    O209    O    0.66654   0.15336   0.57354   1.000
    O210    O    0.74749   0.11438   0.59611   1.000
    O211    O    0.16705   0.27446   0.57446   1.000
    O212    O    0.24840   0.29091   0.59647   1.000
    O213    O    0.87467   0.55977   0.58503   1.000
    O214    O    0.96799   0.57715   0.60996   1.000
    O215    O    0.37417   0.85521   0.58520   1.000
    O216    O    0.46709   0.81249   0.61064   1.000
    O217    O    0.59889   0.19302   0.61463   1.000
    O218    O    0.09939   0.19426   0.61598   1.000
    O219    O    0.30737   0.89648   0.62612   1.000
    O220    O    0.80763   0.47820   0.62645   1.000
    O221    O    0.00296   0.49772   0.68014   1.000
    O222    O    0.50298   0.82347   0.67980   1.000
    O223    O    0.70885   0.75541   0.68911   1.000
    O224    O    0.20629   0.55492   0.69192   1.000
    O225    O    0.50150   0.89661   0.69052   1.000
    O226    O    0.99949   0.41302   0.69311   1.000
    O227    O    0.55658   0.83681   0.73685   1.000
    O228    O    0.45290   0.83087   0.75362   1.000
    O229    O    0.05496   0.42721   0.73845   1.000
    O230    O    0.95174   0.41855   0.75514   1.000
    O231    O    0.66261   0.79709   0.73870   1.000
    O232    O    0.76388   0.76135   0.73958   1.000
    O233    O    0.16039   0.46418   0.74074   1.000
    O234    O    0.26163   0.49849   0.74183   1.000
    O235    O    0.85521   0.73222   0.74496   1.000
    O236    O    0.35296   0.52181   0.74734   1.000
    O237    O    0.61979   0.84269   0.79638   1.000
    O238    O    0.11807   0.36148   0.79747   1.000
    O239    O    0.81881   0.77312   0.79733   1.000
    O240    O    0.31701   0.42903   0.79879   1.000
    O241    O    0.17004   0.00334   0.85627   1.000
    O242    O    0.24958   0.05444   0.91643   1.000
    O243    O    0.58902   0.88222   0.85159   1.000
    O244    O    0.67660   0.85332   0.85390   1.000
    O245    O    0.86182   0.78876   0.85114   1.000
    O246    O    0.77435   0.81948   0.85396   1.000
    O247    O    0.08780   0.26721   0.85180   1.000
    O248    O    0.17536   0.29333   0.85423   1.000
    O249    O    0.36047   0.35964   0.85180   1.000
    O250    O    0.27306   0.32658   0.85446   1.000
    O251    O    0.67060   0.13916   0.85815   1.000
    O252    O    0.23821   0.18307   0.93580   1.000
    O253    O    0.03451   0.96678   0.89286   1.000
    O254    O    0.53479   0.13941   0.89169   1.000
    O255    O    0.36410   0.11240   0.95179   1.000
loop_
    _geom_bond_atom_site_label_1
    _geom_bond_atom_site_label_2
    _geom_bond_distance
    _geom_bond_site_symmetry_2
    _ccdc_geom_bond_type
    C0     O122      1.17622      .   S
    C117   O122      1.17622      .   S
    C0     O123      1.21050      .   S
    C109   O123      1.21050      .   S
    C0     O124      1.37072      .   S
    C102   O124      1.37072      .   S
    C0     O125      1.37138  1_564   S
    C103   O125      1.37138      .   S
    C0     O126      1.20952  1_554   S
    C106   O126      1.20952      .   S
    C0     O127      1.17631  1_554   S
    C114   O127      1.17631      .   S
    C108   O128      0.59349  1_455   S
    C59    O128      0.59349      .   S
    C108   O129      1.17679      .   S
    C1     O129      1.17679  1_556   S
    C117   O130      0.59279      .   S
    C101   O130      0.59279      .   S
    C101   O131      0.82087      .   S
    C105   O131      0.82087      .   S
    C59    O132      0.82092  1_545   S
    C102   O132      0.82092      .   S
    C112   O133      0.67246      .   S
    C78    O133      0.67246      .   S
    C112   O134      0.67430      .   S
    C74    O134      0.67430      .   S
    C112   O135      1.20949      .   S
    C1     O135      1.20949  1_556   S
    C109   O136      0.67429      .   S
    C60    O136      0.67429      .   S
    C109   O137      0.67242      .   S
    C64    O137      0.67242      .   S
    C27    O138      0.54603      .   S
    C78    O138      0.54603      .   S
    C13    O139      0.54525      .   S
    C60    O139      0.54525      .   S
    C16    O140      0.54605      .   S
    C64    O140      0.54605      .   S
    C24    O141      0.54525      .   S
    C74    O141      0.54525      .   S
    C105   O142      1.37146      .   S
    C1     O142      1.37146  1_546   S
    C60    O143      0.69479      .   S
    C61    O143      0.69479      .   S
    C78    O144      0.69937      .   S
    C77    O144      0.69937      .   S
    C74    O145      0.69480      .   S
    C75    O145      0.69480      .   S
    C64    O146      0.69942      .   S
    C63    O146      0.69942      .   S
    C17    O147      0.55227      .   S
    C65    O147      0.55227      .   S
    C28    O148      0.55215      .   S
    C79    O148      0.55215      .   S
    C61    O149      0.54482      .   S
    C14    O149      0.54482      .   S
    C61    O150      0.69753      .   S
    C62    O150      0.69753      .   S
    C75    O151      0.54481      .   S
    C25    O151      0.54481      .   S
    C75    O152      0.69746      .   S
    C76    O152      0.69746      .   S
    C63    O153      0.69919      .   S
    C62    O153      0.69919      .   S
    C63    O154      0.75876      .   S
    C65    O154      0.75876  1_455   S
    C77    O155      0.69923      .   S
    C76    O155      0.69923      .   S
    C77    O156      0.75428      .   S
    C79    O156      0.75428      .   S
    C62    O157      0.54424      .   S
    C15    O157      0.54424      .   S
    C76    O158      0.54425      .   S
    C26    O158      0.54425      .   S
    C65    O159      0.55179      .   S
    C18    O159      0.55179  1_655   S
    C65    O160      0.71520  1_455   S
    C119   O160      0.71520      .   S
    C79    O161      0.55183      .   S
    C29    O161      0.55183      .   S
    C79    O162      0.71545      .   S
    C120   O162      0.71545      .   S
    C33    O163      0.54522      .   S
    C85    O163      0.54522      .   S
    C22    O164      0.54518      .   S
    C71    O164      0.54518      .   S
    C42    O165      0.54481      .   S
    C96    O165      0.54481      .   S
    C9     O166      0.54481      .   S
    C54    O166      0.54481      .   S
    C120   O167      0.68637      .   S
    C80    O167      0.68637      .   S
    C119   O168      0.68631  1_655   S
    C66    O168      0.68631      .   S
    C43    O169      0.54383      .   S
    C97    O169      0.54383      .   S
    C10    O170      0.54391      .   S
    C55    O170      0.54391      .   S
    C23    O171      0.54961      .   S
    C72    O171      0.54961      .   S
    C34    O172      0.54961      .   S
    C86    O172      0.54961      .   S
    C85    O173      0.69928      .   S
    C80    O173      0.69928      .   S
    C85    O174      0.70627      .   S
    C84    O174      0.70627      .   S
    C71    O175      0.69934      .   S
    C66    O175      0.69934      .   S
    C71    O176      0.70636      .   S
    C70    O176      0.70636      .   S
    C96    O177      0.69583      .   S
    C97    O177      0.69583      .   S
    C96    O178      0.69656      .   S
    C95    O178      0.69656      .   S
    C54    O179      0.69584      .   S
    C55    O179      0.69584      .   S
    C54    O180      0.69660      .   S
    C53    O180      0.69660      .   S
    C80    O181      0.70105      .   S
    C81    O181      0.70105      .   S
    C66    O182      0.70116      .   S
    C67    O182      0.70116      .   S
    C97    O183      0.70382      .   S
    C98    O183      0.70382      .   S
    C55    O184      0.70390      .   S
    C56    O184      0.70390      .   S
    C72    O185      0.72789      .   S
    C70    O185      0.72789      .   S
    C72    O186      0.64997      .   S
    C110   O186      0.64997      .   S
    C86    O187      0.72778      .   S
    C84    O187      0.72778      .   S
    C86    O188      0.64992      .   S
    C113   O188      0.64992      .   S
    C84    O189      0.70391      .   S
    C83    O189      0.70391      .   S
    C70    O190      0.70383      .   S
    C69    O190      0.70383      .   S
    C41    O191      0.53889      .   S
    C95    O191      0.53889  1_655   S
    C8     O192      0.54376      .   S
    C53    O192      0.54376      .   S
    C116   O193      0.69621      .   S
    C110   O193      0.69621      .   S
    C116   O194      0.64996      .   S
    C100   O194      0.64996      .   S
    C107   O195      0.69620  1_565   S
    C113   O195      0.69620  1_655   S
    C107   O196      0.64992      .   S
    C58    O196      0.64992      .   S
    C95    O197      0.70115      .   S
    C94    O197      0.70115      .   S
    C53    O198      0.70112      .   S
    C52    O198      0.70112      .   S
    C81    O199      0.54376      .   S
    C30    O199      0.54376      .   S
    C81    O200      0.69664      .   S
    C82    O200      0.69664      .   S
    C67    O201      0.54863  1_455   S
    C19    O201      0.54863      .   S
    C67    O202      0.69660      .   S
    C68    O202      0.69660      .   S
    C56    O203      0.72781      .   S
    C58    O203      0.72781      .   S
    C56    O204      0.70634      .   S
    C57    O204      0.70634      .   S
    C98    O205      0.72793      .   S
    C100   O205      0.72793      .   S
    C98    O206      0.70637      .   S
    C99    O206      0.70637      .   S
    C58    O207      0.54962      .   S
    C12    O207      0.54962      .   S
    C100   O208      0.54962      .   S
    C45    O208      0.54962      .   S
    C83    O209      0.69584      .   S
    C82    O209      0.69584      .   S
    C83    O210      0.54389      .   S
    C32    O210      0.54389      .   S
    C69    O211      0.69584      .   S
    C68    O211      0.69584      .   S
    C69    O212      0.54386      .   S
    C21    O212      0.54386      .   S
    C94    O213      0.69937      .   S
    C99    O213      0.69937      .   S
    C94    O214      0.68632      .   S
    C121   O214      0.68632  1_455   S
    C52    O215      0.69931      .   S
    C57    O215      0.69931      .   S
    C52    O216      0.68631      .   S
    C118   O216      0.68631      .   S
    C82    O217      0.54482      .   S
    C31    O217      0.54482      .   S
    C68    O218      0.54482      .   S
    C20    O218      0.54482      .   S
    C57    O219      0.54522      .   S
    C11    O219      0.54522      .   S
    C99    O220      0.54517      .   S
    C44    O220      0.54517      .   S
    C121   O221      0.71514      .   S
    C93    O221      0.71514  1_655   S
    C118   O222      0.71527      .   S
    C51    O222      0.71527      .   S
    C4     O223      0.54425      .   S
    C48    O223      0.54425      .   S
    C37    O224      0.54425      .   S
    C90    O224      0.54425      .   S
    C7     O225      0.55183      .   S
    C51    O225      0.55183      .   S
    C40    O226      0.55177  1_455   S
    C93    O226      0.55177      .   S
    C51    O227      0.75429      .   S
    C49    O227      0.75429      .   S
    C51    O228      0.55219      .   S
    C6     O228      0.55219      .   S
    C93    O229      0.74983  1_655   S
    C91    O229      0.74983      .   S
    C93    O230      0.55232      .   S
    C39    O230      0.55232      .   S
    C48    O231      0.69923      .   S
    C49    O231      0.69923      .   S
    C48    O232      0.69747      .   S
    C47    O232      0.69747      .   S
    C90    O233      0.69922      .   S
    C91    O233      0.69922      .   S
    C90    O234      0.69751      .   S
    C89    O234      0.69751      .   S
    C3     O235      0.54481      .   S
    C47    O235      0.54481      .   S
    C36    O236      0.54482      .   S
    C89    O236      0.54482      .   S
    C49    O237      0.69937      .   S
    C50    O237      0.69937      .   S
    C91    O238      0.69942      .   S
    C92    O238      0.69942      .   S
    C47    O239      0.69480      .   S
    C46    O239      0.69480      .   S
    C89    O240      0.69479      .   S
    C88    O240      0.69479      .   S
    C104   O241      0.82094      .   S
    C87    O241      0.82094  1_565   S
    C104   O242      1.37025      .   S
    C1     O242      1.37025      .   S
    C50    O243      0.54603      .   S
    C5     O243      0.54603      .   S
    C50    O244      0.67246      .   S
    C106   O244      0.67246      .   S
    C46    O245      0.54525      .   S
    C2     O245      0.54525      .   S
    C46    O246      0.67432      .   S
    C106   O246      0.67432      .   S
    C92    O247      0.54604      .   S
    C38    O247      0.54604      .   S
    C92    O248      0.67244      .   S
    C115   O248      0.67244      .   S
    C88    O249      0.54526      .   S
    C35    O249      0.54526      .   S
    C88    O250      0.67428      .   S
    C115   O250      0.67428      .   S
    C103   O251      0.82088      .   S
    C73    O251      0.82088      .   S
    C115   O252      1.21047      .   S
    C1     O252      1.21047      .   S
    C87    O253      0.59174      .   S
    C114   O253      0.59174  1_655   S
    C73    O254      0.59280      .   S
    C111   O254      0.59280      .   S
    C111   O255      1.17641      .   S
    C1     O255      1.17641      .   S
