# CIF file generated by openbabel 2.4.90, see http://openbabel.sf.net
data_I
_chemical_name_common ''
_cell_length_a 10.95
_cell_length_b 13.18
_cell_length_c 13.821
_cell_angle_alpha 61.782
_cell_angle_beta 71.832
_cell_angle_gamma 89.868
_space_group_name_H-M_alt 'P 1'
_space_group_name_Hall 'P 1'
loop_
    _symmetry_equiv_pos_as_xyz
    x,y,z
loop_
    _atom_site_label
    _atom_site_type_symbol
    _atom_site_fract_x
    _atom_site_fract_y
    _atom_site_fract_z
    _atom_site_occupancy
    Zr0     Zr   0.75007   0.91560   0.00080   1.000
    Zr1     Zr   0.25019   0.08440   0.99869   1.000
    N2      N    0.50024   0.50006   0.49984   1.000
    O3      O    0.36922   0.34156   0.71782   1.000
    O4      O    0.63102   0.65846   0.28181   1.000
    N5      N    0.00033   0.00024   0.49952   1.000
    O6      O    0.13101   0.05978   0.28108   1.000
    O7      O    0.86952   0.94049   0.71815   1.000
    N8      N    0.10600   0.98601   0.87330   1.000
    O9      O    0.17779   0.02022   0.89487   1.000
    O10     O    0.98499   0.95975   0.91369   1.000
    N11     N    0.60641   0.13957   0.87373   1.000
    O12     O    0.48525   0.12599   0.91276   1.000
    O13     O    0.67813   0.08366   0.89652   1.000
    N14     N    0.39389   0.86043   0.12570   1.000
    O15     O    0.51503   0.87401   0.08666   1.000
    O16     O    0.32216   0.91635   0.10295   1.000
    N17     N    0.89400   0.01390   0.12657   1.000
    O18     O    0.01512   0.04018   0.08609   1.000
    O19     O    0.82225   0.97970   0.10487   1.000
loop_
    _geom_bond_atom_site_label_1
    _geom_bond_atom_site_label_2
    _geom_bond_distance
    _geom_bond_site_symmetry_2
    _ccdc_geom_bond_type
    N2     O3        2.62019      .   S
    Zr1    O3        3.56073      .   S
    N2     O4        2.61981      .   S
    Zr0    O4        3.56159      .   S
    N5     O6        2.61710      .   S
    Zr1    O6        3.55936  1_556   S
    N5     O7        2.61878  1_445   S
    Zr0    O7        3.56134  1_554   S
    N8     O9        1.08857  1_565   S
    Zr1    O9        2.29410      .   S
    N8     O10       1.24304  1_455   S
    Zr0    O10       2.41213  1_554   S
    N11    O12       1.24356      .   S
    Zr1    O12       2.41263      .   S
    N11    O13       1.09142      .   S
    Zr0    O13       2.29897  1_564   S
    N14    O15       1.24347      .   S
    Zr0    O15       2.41236      .   S
    N14    O16       1.09141      .   S
    Zr1    O16       2.29903  1_546   S
    N17    O18       1.24429  1_655   S
    Zr1    O18       2.41378  1_556   S
    N17    O19       1.08938  1_545   S
    Zr0    O19       2.29530      .   S
