# CIF file generated by openbabel 2.4.90, see http://openbabel.sf.net
data_I
_chemical_name_common ''
_cell_length_a 20.818
_cell_length_b 14.184
_cell_length_c 14.212
_cell_angle_alpha 105.285
_cell_angle_beta 97.023
_cell_angle_gamma 95.798
_space_group_name_H-M_alt 'P 1'
_space_group_name_Hall 'P 1'
loop_
    _symmetry_equiv_pos_as_xyz
    x,y,z
loop_
    _atom_site_label
    _atom_site_type_symbol
    _atom_site_fract_x
    _atom_site_fract_y
    _atom_site_fract_z
    _atom_site_occupancy
    Lv0     Lv   0.00000   0.00001   0.49998   1.000
    Lv1     Lv   0.87084   0.31700   0.23156   1.000
    Lv2     Lv   0.75000   0.50001   0.99998   1.000
    Lv3     Lv   0.12099   0.23138   0.31788   1.000
    Lv4     Lv   0.37084   0.31700   0.23162   1.000
    Lv5     Lv   0.50000   0.00001   0.49998   1.000
    Lv6     Lv   0.87901   0.76809   0.68207   1.000
    Lv7     Lv   0.62916   0.68300   0.76751   1.000
    Lv8     Lv   0.25000   0.50000   0.99998   1.000
    Lv9     Lv   0.37901   0.76809   0.68207   1.000
    Lv10    Lv   0.62099   0.23138   0.31788   1.000
    Lv11    Lv   0.12916   0.68300   0.76750   1.000
