# CIF file generated by openbabel 2.4.90, see http://openbabel.sf.net
data_I
_chemical_name_common ''
_cell_length_a 20.818
_cell_length_b 14.184
_cell_length_c 14.212
_cell_angle_alpha 105.285
_cell_angle_beta 97.023
_cell_angle_gamma 95.798
_space_group_name_H-M_alt 'P 1'
_space_group_name_Hall 'P 1'
loop_
    _symmetry_equiv_pos_as_xyz
    x,y,z
loop_
    _atom_site_label
    _atom_site_type_symbol
    _atom_site_fract_x
    _atom_site_fract_y
    _atom_site_fract_z
    _atom_site_occupancy
    H0      H    0.49997   0.40686   0.48361   1.000
    H1      H    0.99997   0.40686   0.48361   1.000
    H2      H    0.47459   0.42142   0.30192   1.000
    H3      H    0.97459   0.42142   0.30192   1.000
    H4      H    0.25296   0.27299   0.17971   1.000
    H5      H    0.75296   0.27300   0.17971   1.000
    H6      H    0.23475   0.26077   0.98873   1.000
    H7      H    0.73476   0.26077   0.98873   1.000
    H8      H    0.23402   0.03569   0.61130   1.000
    H9      H    0.73403   0.03569   0.61132   1.000
    H10     H    0.18124   0.30940   0.61244   1.000
    H11     H    0.68124   0.30940   0.61244   1.000
    H12     H    0.12157   0.95118   0.54391   1.000
    H13     H    0.62158   0.95118   0.54390   1.000
    H14     H    0.06389   0.23739   0.54982   1.000
    H15     H    0.56389   0.23739   0.54983   1.000
    H16     H    0.48069   0.10252   0.50179   1.000
    H17     H    0.98069   0.10252   0.50179   1.000
    H18     H    0.24797   0.52145   0.59140   1.000
    H19     H    0.74797   0.52144   0.59140   1.000
    H20     H    0.27498   0.70211   0.57643   1.000
    H21     H    0.77498   0.70211   0.57643   1.000
    H22     H    0.49752   0.81655   0.72670   1.000
    H23     H    0.99752   0.81655   0.72671   1.000
    H24     H    0.01599   0.00000   0.74012   1.000
    H25     H    0.51599   0.00000   0.74012   1.000
    H26     H    0.01728   0.39055   0.96680   1.000
    H27     H    0.51728   0.39055   0.96683   1.000
    H28     H    0.06539   0.38399   0.69146   1.000
    H29     H    0.56539   0.38399   0.69146   1.000
    H30     H    0.13019   0.45830   0.05035   1.000
    H31     H    0.63019   0.45831   0.05035   1.000
    H32     H    0.18314   0.44675   0.76241   1.000
    H33     H    0.68314   0.44675   0.76241   1.000
    H34     H    0.26775   0.49649   0.89698   1.000
    H35     H    0.76775   0.49649   0.89698   1.000
    H36     H    0.00002   0.59314   0.51635   1.000
    H37     H    0.50003   0.59315   0.51635   1.000
    H38     H    0.02540   0.57859   0.69804   1.000
    H39     H    0.52541   0.57859   0.69804   1.000
    H40     H    0.24704   0.72698   0.82024   1.000
    H41     H    0.74704   0.72699   0.82024   1.000
    H42     H    0.26525   0.73922   0.00000   1.000
    H43     H    0.76525   0.73923   0.00000   1.000
    H44     H    0.26598   0.96432   0.38865   1.000
    H45     H    0.76598   0.96432   0.38865   1.000
    H46     H    0.31876   0.69061   0.38751   1.000
    H47     H    0.81876   0.69061   0.38751   1.000
    H48     H    0.37843   0.04884   0.45607   1.000
    H49     H    0.87843   0.04884   0.45607   1.000
    H50     H    0.43611   0.76262   0.45013   1.000
    H51     H    0.93611   0.76262   0.45013   1.000
    H52     H    0.01931   0.89750   0.49817   1.000
    H53     H    0.51932   0.89750   0.49817   1.000
    H54     H    0.25204   0.47857   0.40853   1.000
    H55     H    0.75204   0.47857   0.40853   1.000
    H56     H    0.22503   0.29790   0.42352   1.000
    H57     H    0.72503   0.29791   0.42352   1.000
    H58     H    0.00248   0.18347   0.27325   1.000
    H59     H    0.50248   0.18347   0.27325   1.000
    H60     H    0.48401   0.99243   0.25984   1.000
    H61     H    0.98401   0.99243   0.25985   1.000
    H62     H    0.48272   0.60946   0.03312   1.000
    H63     H    0.98272   0.60946   0.03310   1.000
    H64     H    0.43462   0.61602   0.30850   1.000
    H65     H    0.93462   0.61602   0.30850   1.000
    H66     H    0.36981   0.54171   0.94961   1.000
    H67     H    0.86982   0.54171   0.94961   1.000
    H68     H    0.31686   0.55326   0.23755   1.000
    H69     H    0.81687   0.55326   0.23755   1.000
    H70     H    0.23225   0.50351   0.10298   1.000
    H71     H    0.73225   0.50353   0.10298   1.000
    C72     C    0.41107   0.30244   0.45227   1.000
    C73     C    0.91107   0.30244   0.45227   1.000
    C74     C    0.45810   0.36588   0.42979   1.000
    C75     C    0.95810   0.36588   0.42900   1.000
    C76     C    0.44445   0.37340   0.33257   1.000
    C77     C    0.94446   0.37340   0.33257   1.000
    C78     C    0.38680   0.31489   0.27982   1.000
    C79     C    0.88680   0.31490   0.27980   1.000
    C80     C    0.35783   0.30364   0.17899   1.000
    C81     C    0.85784   0.30364   0.17899   1.000
    C82     C    0.29208   0.28197   0.13708   1.000
    C83     C    0.79208   0.28197   0.13708   1.000
    C84     C    0.28214   0.27599   0.03554   1.000
    C85     C    0.78214   0.27599   0.03554   1.000
    C86     C    0.33985   0.29262   0.99958   1.000
    C87     C    0.83985   0.29263   0.99958   1.000
    C88     C    0.91716   0.59974   0.22975   1.000
    C89     C    0.38060   0.55887   0.02975   1.000
    C90     C    0.88060   0.55887   0.02975   1.000
    C91     C    0.35235   0.56444   0.18970   1.000
    C92     C    0.19464   0.07721   0.59625   1.000
    C93     C    0.69464   0.07721   0.59625   1.000
    C94     C    0.16498   0.23075   0.59756   1.000
    C95     C    0.66499   0.23075   0.59756   1.000
    C96     C    0.13121   0.03114   0.55979   1.000
    C97     C    0.63121   0.03114   0.55979   1.000
    C98     C    0.10031   0.19013   0.56228   1.000
    C99     C    0.60031   0.19013   0.56228   1.000
    C100    C    0.08135   0.08797   0.54360   1.000
    C101    C    0.58136   0.08797   0.54360   1.000
    C102    C    0.01277   0.04789   0.50970   1.000
    C103    C    0.51277   0.04789   0.50974   1.000
    C104    C    0.33750   0.54886   0.69624   1.000
    C105    C    0.83750   0.54886   0.69620   1.000
    C106    C    0.29050   0.57342   0.63240   1.000
    C107    C    0.79050   0.57342   0.63243   1.000
    C108    C    0.30499   0.67017   0.62478   1.000
    C109    C    0.80499   0.67017   0.62478   1.000
    C110    C    0.36323   0.72051   0.68362   1.000
    C111    C    0.86323   0.72051   0.68362   1.000
    C112    C    0.39262   0.82057   0.69531   1.000
    C113    C    0.89262   0.82057   0.69531   1.000
    C114    C    0.45845   0.86053   0.71762   1.000
    C115    C    0.95845   0.86053   0.71762   1.000
    C116    C    0.46852   0.96213   0.72421   1.000
    C117    C    0.96852   0.96213   0.72421   1.000
    C118    C    0.41083   0.00000   0.70742   1.000
    C119    C    0.91083   0.00000   0.70742   1.000
    C120    C    0.05575   0.40457   0.92475   1.000
    C121    C    0.55575   0.40458   0.92475   1.000
    C122    C    0.08284   0.40027   0.77021   1.000
    C123    C    0.58284   0.40027   0.77021   1.000
    C124    C    0.11941   0.44113   0.97021   1.000
    C125    C    0.61941   0.44113   0.97021   1.000
    C126    C    0.14766   0.43556   0.81020   1.000
    C127    C    0.64766   0.43556   0.81020   1.000
    C128    C    0.16798   0.45581   0.91253   1.000
    C129    C    0.66798   0.45582   0.91253   1.000
    C130    C    0.23666   0.48967   0.95202   1.000
    C131    C    0.73666   0.48967   0.95202   1.000
    C132    C    0.08893   0.69754   0.54769   1.000
    C133    C    0.58893   0.69756   0.54769   1.000
    C134    C    0.04190   0.63411   0.57010   1.000
    C135    C    0.54190   0.63412   0.57016   1.000
    C136    C    0.05554   0.62660   0.66739   1.000
    C137    C    0.55554   0.62661   0.66739   1.000
    C138    C    0.11320   0.68510   0.72013   1.000
    C139    C    0.61320   0.68511   0.72013   1.000
    C140    C    0.14216   0.69635   0.82097   1.000
    C141    C    0.64217   0.69636   0.82097   1.000
    C142    C    0.20792   0.71802   0.86287   1.000
    C143    C    0.70792   0.71803   0.86287   1.000
    C144    C    0.21786   0.72401   0.96440   1.000
    C145    C    0.71786   0.72401   0.96441   1.000
    C146    C    0.16015   0.70739   0.00000   1.000
    C147    C    0.66015   0.70739   0.00000   1.000
    C148    C    0.30537   0.92281   0.40372   1.000
    C149    C    0.80537   0.92281   0.40372   1.000
    C150    C    0.33502   0.76927   0.40240   1.000
    C151    C    0.83502   0.76927   0.40239   1.000
    C152    C    0.36880   0.96887   0.44010   1.000
    C153    C    0.86880   0.96887   0.44018   1.000
    C154    C    0.39969   0.80988   0.43768   1.000
    C155    C    0.89969   0.80989   0.43768   1.000
    C156    C    0.41865   0.91205   0.45636   1.000
    C157    C    0.91865   0.91205   0.45636   1.000
    C158    C    0.48723   0.95212   0.49022   1.000
    C159    C    0.98724   0.95212   0.49022   1.000
    C160    C    0.16250   0.45115   0.30371   1.000
    C161    C    0.66250   0.45116   0.30371   1.000
    C162    C    0.20950   0.42659   0.36752   1.000
    C163    C    0.70950   0.42660   0.36750   1.000
    C164    C    0.19501   0.32984   0.37517   1.000
    C165    C    0.69502   0.32985   0.37517   1.000
    C166    C    0.13678   0.27950   0.31630   1.000
    C167    C    0.63677   0.27950   0.31633   1.000
    C168    C    0.10738   0.17945   0.30465   1.000
    C169    C    0.60738   0.17945   0.30465   1.000
    C170    C    0.04155   0.13948   0.28234   1.000
    C171    C    0.54155   0.13949   0.28234   1.000
    C172    C    0.03148   0.03789   0.27575   1.000
    C173    C    0.53148   0.03789   0.27575   1.000
    C174    C    0.08917   0.99996   0.29255   1.000
    C175    C    0.58917   0.99996   0.29254   1.000
    C176    C    0.44425   0.59544   0.07521   1.000
    C177    C    0.94425   0.59544   0.07521   1.000
    C178    C    0.41716   0.59975   0.22975   1.000
    C179    C    0.85235   0.56445   0.18976   1.000
    C180    C    0.33203   0.54419   0.08743   1.000
    C181    C    0.83203   0.54420   0.08743   1.000
    C182    C    0.26334   0.51033   0.04794   1.000
    C183    C    0.76334   0.51034   0.04794   1.000
    S184    S    0.35021   0.25012   0.35188   1.000
    S185    S    0.85021   0.25012   0.35188   1.000
    S186    S    0.40695   0.31500   0.09120   1.000
    S187    S    0.90695   0.31500   0.09120   1.000
    S188    S    0.39943   0.64675   0.74879   1.000
    S189    S    0.89943   0.64675   0.74879   1.000
    S190    S    0.34363   0.91023   0.68400   1.000
    S191    S    0.84363   0.91023   0.68400   1.000
    S192    S    0.14980   0.74986   0.64807   1.000
    S193    S    0.64980   0.74987   0.64807   1.000
    S194    S    0.09305   0.68501   0.90876   1.000
    S195    S    0.59306   0.68502   0.90876   1.000
    S196    S    0.10057   0.35327   0.25117   1.000
    S197    S    0.60057   0.35328   0.25117   1.000
    S198    S    0.15637   0.08979   0.31596   1.000
    S199    S    0.65637   0.08979   0.31596   1.000
    N200    N    0.21189   0.17598   0.61618   1.000
    N201    N    0.71189   0.17598   0.61618   1.000
    N202    N    0.03720   0.38322   0.82586   1.000
    N203    N    0.53720   0.38323   0.82586   1.000
    N204    N    0.28811   0.82403   0.38379   1.000
    N205    N    0.78811   0.82403   0.38378   1.000
    N206    N    0.46280   0.61681   0.17410   1.000
    N207    N    0.96280   0.61679   0.17410   1.000
loop_
    _geom_bond_atom_site_label_1
    _geom_bond_atom_site_label_2
    _geom_bond_distance
    _geom_bond_site_symmetry_2
    _ccdc_geom_bond_type
    C147   S195      1.72738  1_554   S
    C147   C145      1.38161  1_554   S
    C146   S194      1.72738  1_554   S
    C146   C144      1.38169  1_554   S
    H43    C145      1.02620  1_554   S
    H42    C144      1.02623  1_554   S
    C90    C177      1.38478      .   S
    C90    C181      1.40991      .   S
    C90    H67       1.08954  1_554   S
    C89    C176      1.38476      .   S
    C89    C180      1.40992      .   S
    C89    H66       1.08955  1_554   S
    H63    C177      1.08947      .   S
    H62    C176      1.08927      .   S
    C85    C83       1.41118      .   S
    C85    H7        1.08774  1_554   S
    C85    C87       1.38438  1_554   S
    C84    C82       1.41118      .   S
    C84    H6        1.08773  1_554   S
    C84    C86       1.38437  1_554   S
    C183   C181      1.45365      .   S
    C183   H71       1.09142      .   S
    C183   C131      1.35056  1_554   S
    C182   C180      1.45364      .   S
    C182   H70       1.09142      .   S
    C182   C130      1.35058  1_554   S
    H31    C125      1.08953  1_554   S
    H30    C124      1.08954  1_554   S
    C177   N207      1.35472      .   S
    C176   N206      1.35470      .   S
    C180   C91       1.40677      .   S
    C181   C179      1.40757      .   S
    S186   C80       1.73566      .   S
    S186   C86       1.73063  1_554   S
    S187   C81       1.73566      .   S
    S187   C87       1.73063  1_554   S
    C82    C80       1.39358      .   S
    C82    H4        1.08942      .   S
    C83    C81       1.39360      .   S
    C83    H5        1.08942      .   S
    N206   C178      1.35089      .   S
    N207   C88       1.35088      .   S
    C81    C79       1.44585      .   S
    C80    C78       1.44611      .   S
    C91    C178      1.38587      .   S
    C91    H68       1.09055      .   S
    C179   C88       1.38568      .   S
    C179   H69       1.08995      .   S
    C88    H65       1.08872      .   S
    C178   H64       1.08873      .   S
    S196   C160      1.73316      .   S
    S196   C166      1.73756      .   S
    S197   C161      1.73315      .   S
    S197   C167      1.73784      .   S
    H60    C173      1.08775  1_565   S
    H61    C172      1.08770  1_665   S
    H58    C170      1.08942      .   S
    H59    C171      1.08939      .   S
    C173   C171      1.41147      .   S
    C173   C175      1.38454  1_545   S
    C172   C170      1.41145      .   S
    C172   C174      1.38457  1_545   S
    C79    C77       1.39360      .   S
    C79    S185      1.73768      .   S
    C78    C76       1.39352      .   S
    C78    S184      1.73745      .   S
    C171   C169      1.39349      .   S
    C170   C168      1.39347      .   S
    C175   S199      1.73020  1_565   S
    C174   S198      1.73020  1_565   S
    H3     C77       1.08818      .   S
    H2     C76       1.08820      .   S
    C161   C163      1.38528      .   S
    C160   C162      1.38546      .   S
    C169   S199      1.73575      .   S
    C169   C167      1.44626      .   S
    C168   S198      1.73576      .   S
    C168   C166      1.44634      .   S
    C166   C164      1.39354      .   S
    C167   C165      1.39338      .   S
    C76    C74       1.41028      .   S
    C77    C75       1.39934      .   S
    S184   C72       1.73246      .   S
    S185   C73       1.73247      .   S
    C163   C165      1.41043      .   S
    C163   H55       1.08755      .   S
    C162   C164      1.41032      .   S
    C162   H54       1.08747      .   S
    C164   H56       1.08817      .   S
    C165   H57       1.08817      .   S
    N205   C151      1.35103      .   S
    N205   C149      1.35509      .   S
    N204   C150      1.35103      .   S
    N204   C148      1.35509      .   S
    H46    C150      1.08892      .   S
    H47    C151      1.08893      .   S
    H45    C149      1.08908      .   S
    H44    C148      1.08909      .   S
    C151   C155      1.38636      .   S
    C150   C154      1.38636      .   S
    C149   C153      1.38530      .   S
    C148   C152      1.38513      .   S
    C75    C73       1.39130      .   S
    C75    H1        1.09283      .   S
    C74    C72       1.38580      .   S
    C74    H0        1.08756      .   S
    C154   H50       1.08999      .   S
    C154   C156      1.40781      .   S
    C155   H51       1.09002      .   S
    C155   C157      1.40781      .   S
    C152   H48       1.08880  1_565   S
    C152   C156      1.41020      .   S
    C153   H49       1.08890  1_565   S
    C153   C157      1.40994      .   S
    C156   C158      1.45507      .   S
    C157   C159      1.45507      .   S
    C159   H52       1.09149  1_655   S
    C159   C102      1.35061  1_665   S
    C158   H53       1.09155      .   S
    C158   C103      1.35058  1_565   S
    H17    C102      1.09137  1_655   S
    H16    C103      1.09154      .   S
    C102   C100      1.45513      .   S
    C103   C101      1.45507      .   S
    H37    C135      1.08753      .   S
    H36    C134      1.08714      .   S
    C101   C97       1.40998      .   S
    C101   C99       1.40780      .   S
    C100   C96       1.40997      .   S
    C100   C98       1.40780      .   S
    H13    C97       1.08889  1_565   S
    H12    C96       1.08892  1_565   S
    C133   C135      1.38570      .   S
    C133   S193      1.73240      .   S
    C132   C134      1.38527      .   S
    C132   S192      1.73241      .   S
    H14    C98       1.09003      .   S
    H15    C99       1.09000      .   S
    C97    C93       1.38529      .   S
    C96    C92       1.38528      .   S
    C99    C95       1.38635      .   S
    C98    C94       1.38635      .   S
    C134   C136      1.41122      .   S
    C135   C137      1.41041      .   S
    H21    C109      1.08815      .   S
    H20    C108      1.08816      .   S
    H19    C107      1.08754      .   S
    H18    C106      1.08742      .   S
    C92    H8        1.08900      .   S
    C92    N200      1.35509      .   S
    C93    H9        1.08908      .   S
    C93    N201      1.35510      .   S
    C94    H10       1.08893      .   S
    C94    N200      1.35104      .   S
    C95    H11       1.08894      .   S
    C95    N201      1.35103      .   S
    C108   C106      1.41018      .   S
    C108   C110      1.39336      .   S
    C109   C107      1.41033      .   S
    C109   C111      1.39337      .   S
    C106   C104      1.38571      .   S
    C107   C105      1.38508      .   S
    S193   C139      1.73743      .   S
    S192   C138      1.73740      .   S
    C137   H39       1.08817      .   S
    C137   C139      1.39348      .   S
    C136   H38       1.08814      .   S
    C136   C138      1.39350      .   S
    C111   C113      1.44623      .   S
    C111   S189      1.73788      .   S
    C110   C112      1.44623      .   S
    C110   S188      1.73790      .   S
    S191   C113      1.73577      .   S
    S191   C119      1.72971  1_565   S
    S190   C112      1.73577      .   S
    S190   C118      1.72973  1_565   S
    H28    C122      1.08872      .   S
    H29    C123      1.08872      .   S
    C112   C114      1.39349      .   S
    C113   C115      1.39347      .   S
    C105   S189      1.73324      .   S
    C104   S188      1.73317      .   S
    C119   C117      1.38414  1_545   S
    C118   C116      1.38412  1_545   S
    C114   C116      1.41147      .   S
    C114   H22       1.08937      .   S
    C115   C117      1.41147      .   S
    C115   H23       1.08942      .   S
    C139   C141      1.44624      .   S
    C138   C140      1.44624      .   S
    C117   H24       1.04414  1_665   S
    C116   H25       1.04421  1_565   S
    H32    C126      1.08996      .   S
    H33    C127      1.08995      .   S
    C122   C126      1.38567      .   S
    C122   N202      1.35089      .   S
    C123   C127      1.38569      .   S
    C123   N203      1.35088      .   S
    C127   C129      1.40755      .   S
    C126   C128      1.40756      .   S
    H40    C142      1.08939      .   S
    H41    C143      1.08940      .   S
    C141   C143      1.39357      .   S
    C141   S195      1.73562      .   S
    C140   C142      1.39359      .   S
    C140   S194      1.73560      .   S
    N202   C120      1.35473      .   S
    N203   C121      1.35473      .   S
    C142   C144      1.41101      .   S
    C143   C145      1.41116      .   S
    H34    C130      1.09140      .   S
    H35    C131      1.09141      .   S
    C128   C130      1.45366      .   S
    C128   C124      1.40992      .   S
    C129   C131      1.45366      .   S
    C129   C125      1.40991      .   S
    C120   H26       1.08889      .   S
    C120   C124      1.38477      .   S
    C121   H27       1.08917      .   S
    C121   C125      1.38478      .   S
