# CIF file generated by openbabel 2.4.90, see http://openbabel.sf.net
data_I
_chemical_name_common ''
_cell_length_a 20.818
_cell_length_b 14.184
_cell_length_c 14.212
_cell_angle_alpha 105.285
_cell_angle_beta 97.023
_cell_angle_gamma 95.798
_space_group_name_H-M_alt 'P 1'
_space_group_name_Hall 'P 1'
loop_
    _symmetry_equiv_pos_as_xyz
    x,y,z
loop_
    _atom_site_label
    _atom_site_type_symbol
    _atom_site_fract_x
    _atom_site_fract_y
    _atom_site_fract_z
    _atom_site_occupancy
    C0      C    0.40508   0.28361   0.54830   1.000
    C1      C    0.90508   0.28361   0.54837   1.000
    C2      C    0.35019   0.29250   0.89857   1.000
    C3      C    0.85019   0.29250   0.89857   1.000
    C4      C    0.34270   0.45246   0.71559   1.000
    C5      C    0.84270   0.45246   0.71559   1.000
    C6      C    0.40045   0.10176   0.70849   1.000
    C7      C    0.90045   0.10176   0.70849   1.000
    C8      C    0.09492   0.71638   0.45159   1.000
    C9      C    0.59492   0.71639   0.45159   1.000
    C10     C    0.14981   0.70752   0.10139   1.000
    C11     C    0.64981   0.70752   0.10139   1.000
    C12     C    0.15730   0.54755   0.28436   1.000
    C13     C    0.65730   0.54755   0.28436   1.000
    C14     C    0.09955   0.89826   0.29148   1.000
    C15     C    0.59955   0.89826   0.29148   1.000
