# CIF file generated by openbabel 2.4.90, see http://openbabel.sf.net
data_I
_chemical_name_common ''
_cell_length_a 20.818
_cell_length_b 14.184
_cell_length_c 14.212
_cell_angle_alpha 105.285
_cell_angle_beta 97.023
_cell_angle_gamma 95.798
_space_group_name_H-M_alt 'P 1'
_space_group_name_Hall 'P 1'
loop_
    _symmetry_equiv_pos_as_xyz
    x,y,z
loop_
    _atom_site_label
    _atom_site_type_symbol
    _atom_site_fract_x
    _atom_site_fract_y
    _atom_site_fract_z
    _atom_site_occupancy
    N0      N    0.00000   0.00001   0.49998   1.000
    N1      N    0.87084   0.31700   0.23156   1.000
    N2      N    0.75000   0.50001   0.99998   1.000
    N3      N    0.12099   0.23138   0.31788   1.000
    N4      N    0.37084   0.31700   0.23162   1.000
    N5      N    0.50000   0.00001   0.49998   1.000
    N6      N    0.87901   0.76809   0.68207   1.000
    N7      N    0.62916   0.68300   0.76751   1.000
    N8      N    0.25000   0.50000   0.99998   1.000
    N9      N    0.37901   0.76809   0.68207   1.000
    N10     N    0.62099   0.23138   0.31788   1.000
    N11     N    0.12916   0.68300   0.76750   1.000
    Zr12    Zr   0.62542   0.71862   0.28078   1.000
    O13     O    0.74803   0.80705   0.35309   1.000
    O14     O    0.61655   0.90443   0.29286   1.000
    O15     O    0.63374   0.70692   0.09494   1.000
    O16     O    0.63293   0.54199   0.29337   1.000
    O17     O    0.61798   0.70680   0.45718   1.000
    O18     O    0.50256   0.64673   0.19205   1.000
    Zr19    Zr   0.37459   0.28140   0.71917   1.000
    O20     O    0.36626   0.29309   0.90476   1.000
    O21     O    0.38346   0.09544   0.70709   1.000
    O22     O    0.38202   0.29320   0.54256   1.000
    O23     O    0.49745   0.35329   0.80790   1.000
    O24     O    0.36707   0.45789   0.70658   1.000
    O25     O    0.25197   0.19296   0.64686   1.000
    Zr26    Zr   0.87459   0.28140   0.71917   1.000
    O27     O    0.86626   0.29309   0.90475   1.000
    O28     O    0.88202   0.29321   0.54256   1.000
    O29     O    0.86707   0.45789   0.70658   1.000
    O30     O    0.75197   0.19296   0.64686   1.000
    O31     O    0.88346   0.09544   0.70709   1.000
    O32     O    0.99745   0.35329   0.80790   1.000
    Zr33    Zr   0.12541   0.71861   0.28078   1.000
    O34     O    0.11655   0.90443   0.29286   1.000
    O35     O    0.13293   0.54199   0.29337   1.000
    O36     O    0.11798   0.70680   0.45718   1.000
    O37     O    0.13374   0.70692   0.09494   1.000
    O38     O    0.00256   0.64672   0.19206   1.000
    O39     O    0.24803   0.80705   0.35310   1.000
loop_
    _geom_bond_atom_site_label_1
    _geom_bond_atom_site_label_2
    _geom_bond_distance
    _geom_bond_site_symmetry_2
    _ccdc_geom_bond_type
    Zr12   O13       2.67909      .   S
    N0     O13       5.54730  1_445   S
    Zr12   O14       2.62247      .   S
    N10    O14       4.54718  1_545   S
    Zr12   O15       2.63060      .   S
    N7     O15       4.56417  1_556   S
    Zr12   O16       2.57709      .   S
    N10    O16       4.49472      .   S
    Zr12   O17       2.57838      .   S
    N7     O17       4.49106      .   S
    Zr12   O18       2.67919      .   S
    N8     O18       5.54172  1_556   S
    Zr19   O20       2.62706      .   S
    N4     O20       4.55608  1_554   S
    Zr19   O21       2.62448      .   S
    N9     O21       4.55285  1_565   S
    Zr19   O22       2.58135      .   S
    N4     O22       4.49969      .   S
    Zr19   O23       2.67920      .   S
    N2     O23       5.54171      .   S
    Zr19   O24       2.57518      .   S
    N9     O24       4.48896      .   S
    Zr19   O25       2.67909      .   S
    N0     O25       5.54730      .   S
    Zr26   O27       2.62683      .   S
    N1     O27       4.55545  1_554   S
    Zr26   O28       2.58145      .   S
    N1     O28       4.50045      .   S
    Zr26   O29       2.57521      .   S
    N6     O29       4.48894      .   S
    Zr26   O30       2.67909      .   S
    N5     O30       5.54732      .   S
    Zr26   O31       2.62448      .   S
    N6     O31       4.55285  1_565   S
    Zr26   O32       2.67918      .   S
    N8     O32       5.54167  1_455   S
    Zr33   O34       2.62249      .   S
    N3     O34       4.54719  1_545   S
    Zr33   O35       2.57708      .   S
    N3     O35       4.49470      .   S
    Zr33   O36       2.57835      .   S
    N11    O36       4.49098      .   S
    Zr33   O37       2.63064      .   S
    N11    O37       4.56424  1_556   S
    Zr33   O38       2.67918      .   S
    N2     O38       5.54168  1_656   S
    Zr33   O39       2.67911      .   S
    N5     O39       5.54733  1_545   S
