# CIF file generated by openbabel 2.4.90, see http://openbabel.sf.net
data_I
_chemical_name_common ''
_cell_length_a 20.818
_cell_length_b 14.184
_cell_length_c 14.212
_cell_angle_alpha 105.285
_cell_angle_beta 97.023
_cell_angle_gamma 95.798
_space_group_name_H-M_alt 'P 1'
_space_group_name_Hall 'P 1'
loop_
    _symmetry_equiv_pos_as_xyz
    x,y,z
loop_
    _atom_site_label
    _atom_site_type_symbol
    _atom_site_fract_x
    _atom_site_fract_y
    _atom_site_fract_z
    _atom_site_occupancy
    C0      C    0.30551   0.24213   0.68203   1.000
    C1      C    0.80551   0.24213   0.68204   1.000
    C2      C    0.44401   0.31749   0.76071   1.000
    C3      C    0.94401   0.31749   0.76071   1.000
    C4      C    0.19449   0.75789   0.31793   1.000
    C5      C    0.69449   0.75789   0.31790   1.000
    C6      C    0.05599   0.68252   0.23925   1.000
    C7      C    0.55599   0.68253   0.23925   1.000
    C8      C    0.49997   0.40686   0.48361   1.000
    C9      C    0.99997   0.40686   0.48361   1.000
    C10     C    0.47459   0.42142   0.30192   1.000
    C11     C    0.97459   0.42142   0.30192   1.000
    C12     C    0.25296   0.27299   0.17971   1.000
    C13     C    0.75296   0.27300   0.17971   1.000
    C14     C    0.23475   0.26077   0.98873   1.000
    C15     C    0.73476   0.26077   0.98873   1.000
    C16     C    0.23402   0.03569   0.61130   1.000
    C17     C    0.73403   0.03569   0.61132   1.000
    C18     C    0.18124   0.30940   0.61244   1.000
    C19     C    0.68124   0.30940   0.61244   1.000
    C20     C    0.12157   0.95118   0.54391   1.000
    C21     C    0.62158   0.95118   0.54390   1.000
    C22     C    0.06389   0.23739   0.54982   1.000
    C23     C    0.56389   0.23739   0.54983   1.000
    C24     C    0.48069   0.10252   0.50179   1.000
    C25     C    0.98069   0.10252   0.50179   1.000
    C26     C    0.24797   0.52145   0.59140   1.000
    C27     C    0.74797   0.52144   0.59140   1.000
    C28     C    0.27498   0.70211   0.57643   1.000
    C29     C    0.77498   0.70211   0.57643   1.000
    C30     C    0.49752   0.81655   0.72670   1.000
    C31     C    0.99752   0.81655   0.72671   1.000
    C32     C    0.01599   0.00000   0.74012   1.000
    C33     C    0.51599   0.00000   0.74012   1.000
    C34     C    0.01728   0.39055   0.96680   1.000
    C35     C    0.51728   0.39055   0.96683   1.000
    C36     C    0.06539   0.38399   0.69146   1.000
    C37     C    0.56539   0.38399   0.69146   1.000
    C38     C    0.13019   0.45830   0.05035   1.000
    C39     C    0.63019   0.45831   0.05035   1.000
    C40     C    0.18314   0.44675   0.76241   1.000
    C41     C    0.68314   0.44675   0.76241   1.000
    C42     C    0.26775   0.49649   0.89698   1.000
    C43     C    0.76775   0.49649   0.89698   1.000
    C44     C    0.00002   0.59314   0.51635   1.000
    C45     C    0.50003   0.59315   0.51635   1.000
    C46     C    0.02540   0.57859   0.69804   1.000
    C47     C    0.52541   0.57859   0.69804   1.000
    C48     C    0.24704   0.72698   0.82024   1.000
    C49     C    0.74704   0.72699   0.82024   1.000
    C50     C    0.26525   0.73922   0.00000   1.000
    C51     C    0.76525   0.73923   0.00000   1.000
    C52     C    0.26598   0.96432   0.38865   1.000
    C53     C    0.76598   0.96432   0.38865   1.000
    C54     C    0.31876   0.69061   0.38751   1.000
    C55     C    0.81876   0.69061   0.38751   1.000
    C56     C    0.37843   0.04884   0.45607   1.000
    C57     C    0.87843   0.04884   0.45607   1.000
    C58     C    0.43611   0.76262   0.45013   1.000
    C59     C    0.93611   0.76262   0.45013   1.000
    C60     C    0.01931   0.89750   0.49817   1.000
    C61     C    0.51932   0.89750   0.49817   1.000
    C62     C    0.25204   0.47857   0.40853   1.000
    C63     C    0.75204   0.47857   0.40853   1.000
    C64     C    0.22503   0.29790   0.42352   1.000
    C65     C    0.72503   0.29791   0.42352   1.000
    C66     C    0.00248   0.18347   0.27325   1.000
    C67     C    0.50248   0.18347   0.27325   1.000
    C68     C    0.48401   0.99243   0.25984   1.000
    C69     C    0.98401   0.99243   0.25985   1.000
    C70     C    0.48272   0.60946   0.03312   1.000
    C71     C    0.98272   0.60946   0.03310   1.000
    C72     C    0.43462   0.61602   0.30850   1.000
    C73     C    0.93462   0.61602   0.30850   1.000
    C74     C    0.36981   0.54171   0.94961   1.000
    C75     C    0.86982   0.54171   0.94961   1.000
    C76     C    0.31686   0.55326   0.23755   1.000
    C77     C    0.81687   0.55326   0.23755   1.000
    C78     C    0.23225   0.50351   0.10298   1.000
    C79     C    0.73225   0.50353   0.10298   1.000
    C80     C    0.40508   0.28361   0.54830   1.000
    C81     C    0.90508   0.28361   0.54837   1.000
    C82     C    0.41107   0.30244   0.45227   1.000
    C83     C    0.91107   0.30244   0.45227   1.000
    C84     C    0.45810   0.36588   0.42979   1.000
    C85     C    0.95810   0.36588   0.42900   1.000
    C86     C    0.44445   0.37340   0.33257   1.000
    C87     C    0.94446   0.37340   0.33257   1.000
    C88     C    0.38680   0.31489   0.27982   1.000
    C89     C    0.88680   0.31490   0.27980   1.000
    C90     C    0.35783   0.30364   0.17899   1.000
    C91     C    0.85784   0.30364   0.17899   1.000
    C92     C    0.29208   0.28197   0.13708   1.000
    C93     C    0.79208   0.28197   0.13708   1.000
    C94     C    0.28214   0.27599   0.03554   1.000
    C95     C    0.78214   0.27599   0.03554   1.000
    C96     C    0.33985   0.29262   0.99958   1.000
    C97     C    0.83985   0.29263   0.99958   1.000
    C98     C    0.35019   0.29250   0.89857   1.000
    C99     C    0.85019   0.29250   0.89857   1.000
    C100    C    0.19464   0.07721   0.59625   1.000
    C101    C    0.69464   0.07721   0.59625   1.000
    C102    C    0.16498   0.23075   0.59756   1.000
    C103    C    0.66499   0.23075   0.59756   1.000
    C104    C    0.13121   0.03114   0.55979   1.000
    C105    C    0.63121   0.03114   0.55979   1.000
    C106    C    0.10031   0.19013   0.56228   1.000
    C107    C    0.60031   0.19013   0.56228   1.000
    C108    C    0.08135   0.08797   0.54360   1.000
    C109    C    0.58136   0.08797   0.54360   1.000
    C110    C    0.01277   0.04789   0.50970   1.000
    C111    C    0.51277   0.04789   0.50974   1.000
    C112    C    0.34270   0.45246   0.71559   1.000
    C113    C    0.84270   0.45246   0.71559   1.000
    C114    C    0.33750   0.54886   0.69624   1.000
    C115    C    0.83750   0.54886   0.69620   1.000
    C116    C    0.29050   0.57342   0.63240   1.000
    C117    C    0.79050   0.57342   0.63243   1.000
    C118    C    0.30499   0.67017   0.62478   1.000
    C119    C    0.80499   0.67017   0.62478   1.000
    C120    C    0.36323   0.72051   0.68362   1.000
    C121    C    0.86323   0.72051   0.68362   1.000
    C122    C    0.39262   0.82057   0.69531   1.000
    C123    C    0.89262   0.82057   0.69531   1.000
    C124    C    0.45845   0.86053   0.71762   1.000
    C125    C    0.95845   0.86053   0.71762   1.000
    C126    C    0.46852   0.96213   0.72421   1.000
    C127    C    0.96852   0.96213   0.72421   1.000
    C128    C    0.41083   0.00000   0.70742   1.000
    C129    C    0.91083   0.00000   0.70742   1.000
    C130    C    0.40045   0.10176   0.70849   1.000
    C131    C    0.90045   0.10176   0.70849   1.000
    C132    C    0.05575   0.40457   0.92475   1.000
    C133    C    0.55575   0.40458   0.92475   1.000
    C134    C    0.08284   0.40027   0.77021   1.000
    C135    C    0.58284   0.40027   0.77021   1.000
    C136    C    0.11941   0.44113   0.97021   1.000
    C137    C    0.61941   0.44113   0.97021   1.000
    C138    C    0.14766   0.43556   0.81020   1.000
    C139    C    0.64766   0.43556   0.81020   1.000
    C140    C    0.16798   0.45581   0.91253   1.000
    C141    C    0.66798   0.45582   0.91253   1.000
    C142    C    0.23666   0.48967   0.95202   1.000
    C143    C    0.73666   0.48967   0.95202   1.000
    C144    C    0.09492   0.71638   0.45159   1.000
    C145    C    0.59492   0.71639   0.45159   1.000
    C146    C    0.08893   0.69754   0.54769   1.000
    C147    C    0.58893   0.69756   0.54769   1.000
    C148    C    0.04190   0.63411   0.57010   1.000
    C149    C    0.54190   0.63412   0.57016   1.000
    C150    C    0.05554   0.62660   0.66739   1.000
    C151    C    0.55554   0.62661   0.66739   1.000
    C152    C    0.11320   0.68510   0.72013   1.000
    C153    C    0.61320   0.68511   0.72013   1.000
    C154    C    0.14216   0.69635   0.82097   1.000
    C155    C    0.64217   0.69636   0.82097   1.000
    C156    C    0.20792   0.71802   0.86287   1.000
    C157    C    0.70792   0.71803   0.86287   1.000
    C158    C    0.21786   0.72401   0.96440   1.000
    C159    C    0.71786   0.72401   0.96441   1.000
    C160    C    0.16015   0.70739   0.00000   1.000
    C161    C    0.66015   0.70739   0.00000   1.000
    C162    C    0.14981   0.70752   0.10139   1.000
    C163    C    0.64981   0.70752   0.10139   1.000
    C164    C    0.30537   0.92281   0.40372   1.000
    C165    C    0.80537   0.92281   0.40372   1.000
    C166    C    0.33502   0.76927   0.40240   1.000
    C167    C    0.83502   0.76927   0.40239   1.000
    C168    C    0.36880   0.96887   0.44010   1.000
    C169    C    0.86880   0.96887   0.44018   1.000
    C170    C    0.39969   0.80988   0.43768   1.000
    C171    C    0.89969   0.80989   0.43768   1.000
    C172    C    0.41865   0.91205   0.45636   1.000
    C173    C    0.91865   0.91205   0.45636   1.000
    C174    C    0.48723   0.95212   0.49022   1.000
    C175    C    0.98724   0.95212   0.49022   1.000
    C176    C    0.15730   0.54755   0.28436   1.000
    C177    C    0.65730   0.54755   0.28436   1.000
    C178    C    0.16250   0.45115   0.30371   1.000
    C179    C    0.66250   0.45116   0.30371   1.000
    C180    C    0.20950   0.42659   0.36752   1.000
    C181    C    0.70950   0.42660   0.36750   1.000
    C182    C    0.19501   0.32984   0.37517   1.000
    C183    C    0.69502   0.32985   0.37517   1.000
    C184    C    0.13678   0.27950   0.31630   1.000
    C185    C    0.63677   0.27950   0.31633   1.000
    C186    C    0.10738   0.17945   0.30465   1.000
    C187    C    0.60738   0.17945   0.30465   1.000
    C188    C    0.04155   0.13948   0.28234   1.000
    C189    C    0.54155   0.13949   0.28234   1.000
    C190    C    0.03148   0.03789   0.27575   1.000
    C191    C    0.53148   0.03789   0.27575   1.000
    C192    C    0.08917   0.99996   0.29255   1.000
    C193    C    0.58917   0.99996   0.29254   1.000
    C194    C    0.09955   0.89826   0.29148   1.000
    C195    C    0.59955   0.89826   0.29148   1.000
    C196    C    0.44425   0.59544   0.07521   1.000
    C197    C    0.94425   0.59544   0.07521   1.000
    C198    C    0.41716   0.59975   0.22975   1.000
    C199    C    0.91716   0.59974   0.22975   1.000
    C200    C    0.38060   0.55887   0.02975   1.000
    C201    C    0.88060   0.55887   0.02975   1.000
    C202    C    0.35235   0.56444   0.18970   1.000
    C203    C    0.85235   0.56445   0.18976   1.000
    C204    C    0.33203   0.54419   0.08743   1.000
    C205    C    0.83203   0.54420   0.08743   1.000
    C206    C    0.26334   0.51033   0.04794   1.000
    C207    C    0.76334   0.51034   0.04794   1.000
    C208    C    0.35021   0.25012   0.35188   1.000
    C209    C    0.85021   0.25012   0.35188   1.000
    C210    C    0.40695   0.31500   0.09120   1.000
    C211    C    0.90695   0.31500   0.09120   1.000
    C212    C    0.39943   0.64675   0.74879   1.000
    C213    C    0.89943   0.64675   0.74879   1.000
    C214    C    0.34363   0.91023   0.68400   1.000
    C215    C    0.84363   0.91023   0.68400   1.000
    C216    C    0.14980   0.74986   0.64807   1.000
    C217    C    0.64980   0.74987   0.64807   1.000
    C218    C    0.09305   0.68501   0.90876   1.000
    C219    C    0.59306   0.68502   0.90876   1.000
    C220    C    0.10057   0.35327   0.25117   1.000
    C221    C    0.60057   0.35328   0.25117   1.000
    C222    C    0.15637   0.08979   0.31596   1.000
    C223    C    0.65637   0.08979   0.31596   1.000
    C224    C    0.21189   0.17598   0.61618   1.000
    C225    C    0.71189   0.17598   0.61618   1.000
    C226    C    0.03720   0.38322   0.82586   1.000
    C227    C    0.53720   0.38323   0.82586   1.000
    C228    C    0.28811   0.82403   0.38379   1.000
    C229    C    0.78811   0.82403   0.38378   1.000
    C230    C    0.46280   0.61681   0.17410   1.000
    C231    C    0.96280   0.61679   0.17410   1.000
    C232    C    0.30021   0.27966   0.83310   1.000
    C233    C    0.80022   0.27966   0.83310   1.000
    C234    C    0.41010   0.30539   0.88636   1.000
    C235    C    0.91010   0.30540   0.88636   1.000
    C236    C    0.35274   0.23190   0.55423   1.000
    C237    C    0.85274   0.23190   0.55423   1.000
    C238    C    0.45279   0.32216   0.61842   1.000
    C239    C    0.95279   0.32216   0.61842   1.000
    C240    C    0.45037   0.16634   0.72323   1.000
    C241    C    0.95037   0.16634   0.72323   1.000
    C242    C    0.34054   0.11554   0.69455   1.000
    C243    C    0.84054   0.11554   0.69450   1.000
    C244    C    0.39468   0.44495   0.76911   1.000
    C245    C    0.89468   0.44495   0.76911   1.000
    C246    C    0.29483   0.38366   0.67571   1.000
    C247    C    0.79483   0.38366   0.67571   1.000
    C248    C    0.19979   0.72037   0.16686   1.000
    C249    C    0.69979   0.72037   0.16686   1.000
    C250    C    0.08990   0.69463   0.11360   1.000
    C251    C    0.58990   0.69463   0.11360   1.000
    C252    C    0.14726   0.76808   0.44573   1.000
    C253    C    0.64726   0.76810   0.44573   1.000
    C254    C    0.04721   0.67782   0.38153   1.000
    C255    C    0.54721   0.67783   0.38153   1.000
    C256    C    0.04963   0.83368   0.27675   1.000
    C257    C    0.54963   0.83368   0.27674   1.000
    C258    C    0.15946   0.88448   0.30542   1.000
    C259    C    0.65946   0.88448   0.30540   1.000
    C260    C    0.10532   0.55506   0.23084   1.000
    C261    C    0.60532   0.55507   0.23084   1.000
    C262    C    0.20518   0.61635   0.32424   1.000
    C263    C    0.70518   0.61636   0.32424   1.000
    O264    O    0.65498   0.70746   0.05069   1.000
    O265    O    0.62660   0.69620   0.95438   1.000
    O266    O    0.68901   0.71570   0.98220   1.000
    O267    O    0.15498   0.70746   0.05069   1.000
    O268    O    0.12660   0.69620   0.95438   1.000
    O269    O    0.18900   0.71570   0.98220   1.000
    O270    O    0.74155   0.73162   0.98220   1.000
    O271    O    0.24155   0.73161   0.98220   1.000
    O272    O    0.91242   0.57715   0.05248   1.000
    O273    O    0.85631   0.55153   0.05859   1.000
    O274    O    0.87521   0.55029   0.98968   1.000
    O275    O    0.41242   0.57715   0.05248   1.000
    O276    O    0.35631   0.55153   0.05859   1.000
    O277    O    0.37521   0.55029   0.98968   1.000
    O278    O    0.96349   0.60245   0.05415   1.000
    O279    O    0.46349   0.60245   0.05416   1.000
    O280    O    0.78711   0.27898   0.08631   1.000
    O281    O    0.75845   0.26838   0.01213   1.000
    O282    O    0.81100   0.28431   0.01756   1.000
    O283    O    0.28711   0.27898   0.08631   1.000
    O284    O    0.25845   0.26838   0.01213   1.000
    O285    O    0.31100   0.28431   0.01756   1.000
    O286    O    0.79768   0.52727   0.06768   1.000
    O287    O    0.74780   0.50693   0.07546   1.000
    O288    O    0.75000   0.50000   0.99998   1.000
    O289    O    0.29768   0.52726   0.06768   1.000
    O290    O    0.24780   0.50692   0.07546   1.000
    O291    O    0.25000   0.50000   0.99998   1.000
    O292    O    0.62480   0.44972   0.01028   1.000
    O293    O    0.12480   0.44971   0.01028   1.000
    O294    O    0.95353   0.60611   0.12466   1.000
    O295    O    0.45352   0.60612   0.12466   1.000
    O296    O    0.34219   0.55432   0.13856   1.000
    O297    O    0.84219   0.55432   0.13859   1.000
    O298    O    0.38239   0.30932   0.13509   1.000
    O299    O    0.37340   0.30381   0.04539   1.000
    O300    O    0.88239   0.30932   0.13509   1.000
    O301    O    0.87340   0.30381   0.04539   1.000
    O302    O    0.61986   0.70108   0.10749   1.000
    O303    O    0.67480   0.71395   0.13412   1.000
    O304    O    0.11986   0.70108   0.10749   1.000
    O305    O    0.17480   0.71395   0.13412   1.000
    O306    O    0.57295   0.68858   0.17642   1.000
    O307    O    0.07295   0.68858   0.17642   1.000
    O308    O    0.32496   0.29280   0.15804   1.000
    O309    O    0.27252   0.27748   0.15839   1.000
    O310    O    0.82496   0.29281   0.15804   1.000
    O311    O    0.77252   0.27749   0.15839   1.000
    O312    O    0.19714   0.73913   0.24239   1.000
    O313    O    0.69714   0.73913   0.24238   1.000
    O314    O    0.43998   0.60828   0.20192   1.000
    O315    O    0.50939   0.64967   0.20667   1.000
    O316    O    0.93998   0.60827   0.20192   1.000
    O317    O    0.00939   0.64966   0.20667   1.000
    O318    O    0.87232   0.30927   0.22939   1.000
    O319    O    0.37232   0.30927   0.22940   1.000
    O320    O    0.38475   0.58210   0.20972   1.000
    O321    O    0.33461   0.55885   0.21362   1.000
    O322    O    0.88475   0.58210   0.20975   1.000
    O323    O    0.83461   0.55885   0.21365   1.000
    O324    O    0.92589   0.60788   0.26912   1.000
    O325    O    0.42589   0.60788   0.26912   1.000
    O326    O    0.08066   0.61879   0.23504   1.000
    O327    O    0.13131   0.55131   0.25760   1.000
    O328    O    0.58066   0.61880   0.23504   1.000
    O329    O    0.63131   0.55131   0.25760   1.000
    O330    O    0.05281   0.75810   0.25800   1.000
    O331    O    0.05160   0.68017   0.31039   1.000
    O332    O    0.55281   0.75811   0.25799   1.000
    O333    O    0.55160   0.68018   0.31039   1.000
    O334    O    0.13154   0.40221   0.27744   1.000
    O335    O    0.11867   0.31639   0.28373   1.000
    O336    O    0.63154   0.40222   0.27744   1.000
    O337    O    0.61867   0.31639   0.28375   1.000
    O338    O    0.50775   0.01516   0.26779   1.000
    O339    O    0.00775   0.01516   0.26780   1.000
    O340    O    0.02202   0.16148   0.27779   1.000
    O341    O    0.52202   0.16148   0.27779   1.000
    O342    O    0.53652   0.08869   0.27904   1.000
    O343    O    0.56033   0.01893   0.28414   1.000
    O344    O    0.03652   0.08869   0.27904   1.000
    O345    O    0.06032   0.01893   0.28415   1.000
    O346    O    0.57459   0.86597   0.28411   1.000
    O347    O    0.07459   0.86597   0.28411   1.000
    O348    O    0.91563   0.34415   0.30618   1.000
    O349    O    0.86850   0.28251   0.31584   1.000
    O350    O    0.41563   0.34414   0.30619   1.000
    O351    O    0.36850   0.28251   0.31585   1.000
    O352    O    0.57447   0.15947   0.29349   1.000
    O353    O    0.07447   0.15946   0.29349   1.000
    O354    O    0.15990   0.49935   0.29403   1.000
    O355    O    0.18124   0.58195   0.30430   1.000
    O356    O    0.65990   0.49936   0.29403   1.000
    O357    O    0.68124   0.58196   0.30430   1.000
    O358    O    0.59436   0.94911   0.29201   1.000
    O359    O    0.62951   0.89137   0.29844   1.000
    O360    O    0.09436   0.94911   0.29201   1.000
    O361    O    0.12950   0.89137   0.29845   1.000
    O362    O    0.62277   0.04488   0.30425   1.000
    O363    O    0.12277   0.04487   0.30425   1.000
    O364    O    0.95952   0.39741   0.31724   1.000
    O365    O    0.45952   0.39741   0.31724   1.000
    O366    O    0.68600   0.43888   0.33560   1.000
    O367    O    0.18600   0.43887   0.33561   1.000
    O368    O    0.63187   0.13462   0.31030   1.000
    O369    O    0.62208   0.22948   0.31049   1.000
    O370    O    0.13187   0.13462   0.31030   1.000
    O371    O    0.12208   0.22947   0.31047   1.000
    O372    O    0.67698   0.82119   0.31165   1.000
    O373    O    0.17697   0.82118   0.31167   1.000
    O374    O    0.16589   0.30467   0.34573   1.000
    O375    O    0.66589   0.30468   0.34575   1.000
    O376    O    0.69983   0.68713   0.32107   1.000
    O377    O    0.74130   0.79096   0.35084   1.000
    O378    O    0.67088   0.76300   0.38181   1.000
    O379    O    0.19983   0.68712   0.32108   1.000
    O380    O    0.24130   0.79096   0.35086   1.000
    O381    O    0.17088   0.76299   0.38183   1.000
    O382    O    0.45127   0.36964   0.38118   1.000
    O383    O    0.95128   0.36964   0.38078   1.000
    O384    O    0.38064   0.27628   0.40207   1.000
    O385    O    0.88064   0.27628   0.40207   1.000
    O386    O    0.70226   0.37822   0.37133   1.000
    O387    O    0.73077   0.45258   0.38801   1.000
    O388    O    0.20226   0.37822   0.37134   1.000
    O389    O    0.23077   0.45258   0.38802   1.000
    O390    O    0.21002   0.31387   0.39935   1.000
    O391    O    0.71002   0.31388   0.39935   1.000
    O392    O    0.07106   0.69710   0.41656   1.000
    O393    O    0.57107   0.69711   0.41656   1.000
    O394    O    0.81157   0.79665   0.39309   1.000
    O395    O    0.79674   0.87342   0.39375   1.000
    O396    O    0.31156   0.79665   0.39309   1.000
    O397    O    0.29674   0.87342   0.39376   1.000
    O398    O    0.32689   0.72994   0.39495   1.000
    O399    O    0.82689   0.72994   0.39495   1.000
    O400    O    0.78567   0.94357   0.39618   1.000
    O401    O    0.28567   0.94356   0.39618   1.000
    O402    O    0.86736   0.78958   0.42004   1.000
    O403    O    0.36736   0.78958   0.42004   1.000
    O404    O    0.83708   0.94584   0.42195   1.000
    O405    O    0.33708   0.94584   0.42191   1.000
    O406    O    0.93458   0.33416   0.44063   1.000
    O407    O    0.97903   0.38637   0.45630   1.000
    O408    O    0.43458   0.33416   0.44103   1.000
    O409    O    0.47903   0.38637   0.45670   1.000
    O410    O    0.41790   0.78625   0.44390   1.000
    O411    O    0.40917   0.86096   0.44702   1.000
    O412    O    0.91790   0.78625   0.44390   1.000
    O413    O    0.90917   0.86097   0.44702   1.000
    O414    O    0.37361   0.00886   0.44809   1.000
    O415    O    0.39372   0.94046   0.44823   1.000
    O416    O    0.87361   0.00886   0.44812   1.000
    O417    O    0.89372   0.94046   0.44827   1.000
    O418    O    0.62109   0.74224   0.44866   1.000
    O419    O    0.12109   0.74223   0.44866   1.000
    O420    O    0.09192   0.70696   0.49964   1.000
    O421    O    0.59193   0.70697   0.49964   1.000
    O422    O    0.40807   0.29302   0.50028   1.000
    O423    O    0.90807   0.29303   0.50032   1.000
    O424    O    0.45294   0.93208   0.47329   1.000
    O425    O    0.95294   0.93209   0.47329   1.000
    O426    O    0.00328   0.92481   0.49419   1.000
    O427    O    0.00000   0.00001   0.49996   1.000
    O428    O    0.50328   0.92481   0.49419   1.000
    O429    O    0.50000   0.00001   0.49998   1.000
    O430    O    0.99673   0.07520   0.50575   1.000
    O431    O    0.49673   0.07520   0.50576   1.000
    O432    O    0.04706   0.06793   0.52665   1.000
    O433    O    0.54706   0.06793   0.52667   1.000
    O434    O    0.52097   0.61363   0.54325   1.000
    O435    O    0.02096   0.61363   0.54322   1.000
    O436    O    0.60628   0.05956   0.55169   1.000
    O437    O    0.59083   0.13905   0.55294   1.000
    O438    O    0.10628   0.05956   0.55169   1.000
    O439    O    0.09083   0.13905   0.55294   1.000
    O440    O    0.62639   0.99116   0.55185   1.000
    O441    O    0.12639   0.99116   0.55185   1.000
    O442    O    0.56542   0.66584   0.55893   1.000
    O443    O    0.61937   0.72372   0.59788   1.000
    O444    O    0.06541   0.66583   0.55889   1.000
    O445    O    0.11936   0.72370   0.59788   1.000
    O446    O    0.37891   0.25775   0.55126   1.000
    O447    O    0.42894   0.30288   0.58336   1.000
    O448    O    0.87891   0.25775   0.55130   1.000
    O449    O    0.92894   0.30289   0.58339   1.000
    O450    O    0.08210   0.21376   0.55605   1.000
    O451    O    0.58210   0.21376   0.55605   1.000
    O452    O    0.32913   0.23701   0.61813   1.000
    O453    O    0.82913   0.23701   0.61813   1.000
    O454    O    0.66292   0.05418   0.57802   1.000
    O455    O    0.16292   0.05418   0.57802   1.000
    O456    O    0.63265   0.21044   0.57992   1.000
    O457    O    0.13265   0.21044   0.57992   1.000
    O458    O    0.04872   0.63036   0.61874   1.000
    O459    O    0.54872   0.63037   0.61877   1.000
    O460    O    0.78998   0.68614   0.60060   1.000
    O461    O    0.28998   0.68614   0.60060   1.000
    O462    O    0.76924   0.54743   0.61191   1.000
    O463    O    0.26924   0.54743   0.61190   1.000
    O464    O    0.21433   0.05645   0.60377   1.000
    O465    O    0.20326   0.12660   0.60621   1.000
    O466    O    0.71433   0.05645   0.60378   1.000
    O467    O    0.70326   0.12660   0.60621   1.000
    O468    O    0.17311   0.27007   0.60500   1.000
    O469    O    0.18844   0.20336   0.60687   1.000
    O470    O    0.67311   0.27007   0.60500   1.000
    O471    O    0.68844   0.20337   0.60687   1.000
    O472    O    0.25870   0.20906   0.64910   1.000
    O473    O    0.75870   0.20906   0.64911   1.000
    O474    O    0.44840   0.31983   0.68956   1.000
    O475    O    0.94840   0.31983   0.68956   1.000
    O476    O    0.29775   0.62179   0.62859   1.000
    O477    O    0.33411   0.69534   0.65420   1.000
    O478    O    0.79775   0.62179   0.62860   1.000
    O479    O    0.83411   0.69534   0.65420   1.000
    O480    O    0.31400   0.56114   0.66432   1.000
    O481    O    0.81400   0.56114   0.66431   1.000
    O482    O    0.63150   0.71749   0.68410   1.000
    O483    O    0.13150   0.71748   0.68410   1.000
    O484    O    0.54048   0.60260   0.68271   1.000
    O485    O    0.58437   0.65586   0.69376   1.000
    O486    O    0.04047   0.60260   0.68271   1.000
    O487    O    0.08437   0.65585   0.69376   1.000
    O488    O    0.30017   0.31289   0.67887   1.000
    O489    O    0.31877   0.41806   0.69565   1.000
    O490    O    0.80017   0.31289   0.67887   1.000
    O491    O    0.81877   0.41806   0.69565   1.000
    O492    O    0.32303   0.17883   0.68829   1.000
    O493    O    0.30286   0.26089   0.75756   1.000
    O494    O    0.82303   0.17883   0.68827   1.000
    O495    O    0.80286   0.26089   0.75757   1.000
    O496    O    0.87793   0.77054   0.68946   1.000
    O497    O    0.88133   0.68363   0.71620   1.000
    O498    O    0.37792   0.77054   0.68946   1.000
    O499    O    0.38133   0.68363   0.71620   1.000
    O500    O    0.86813   0.86540   0.68965   1.000
    O501    O    0.87723   0.95511   0.69571   1.000
    O502    O    0.36813   0.86540   0.68965   1.000
    O503    O    0.37723   0.95511   0.69571   1.000
    O504    O    0.07412   0.39213   0.73083   1.000
    O505    O    0.57412   0.39213   0.73083   1.000
    O506    O    0.87050   0.10865   0.70149   1.000
    O507    O    0.37050   0.10865   0.70152   1.000
    O508    O    0.42554   0.84055   0.70646   1.000
    O509    O    0.92554   0.84055   0.70646   1.000
    O510    O    0.84010   0.50066   0.70589   1.000
    O511    O    0.86847   0.59780   0.72249   1.000
    O512    O    0.34010   0.50066   0.70591   1.000
    O513    O    0.36847   0.59780   0.72251   1.000
    O514    O    0.90564   0.05088   0.70796   1.000
    O515    O    0.93968   0.98106   0.71581   1.000
    O516    O    0.40564   0.05088   0.70796   1.000
    O517    O    0.43968   0.98106   0.71581   1.000
    O518    O    0.92541   0.13405   0.71586   1.000
    O519    O    0.42541   0.13405   0.71586   1.000
    O520    O    0.36869   0.44871   0.74235   1.000
    O521    O    0.86869   0.44871   0.74235   1.000
    O522    O    0.46349   0.91133   0.72091   1.000
    O523    O    0.47798   0.83854   0.72216   1.000
    O524    O    0.96349   0.91133   0.72091   1.000
    O525    O    0.97798   0.83854   0.72216   1.000
    O526    O    0.62768   0.69074   0.77055   1.000
    O527    O    0.12768   0.69073   0.77055   1.000
    O528    O    0.94719   0.24192   0.74197   1.000
    O529    O    0.44719   0.24192   0.74197   1.000
    O530    O    0.99226   0.98106   0.73216   1.000
    O531    O    0.49226   0.98106   0.73216   1.000
    O532    O    0.41935   0.38122   0.76491   1.000
    O533    O    0.49061   0.35036   0.79329   1.000
    O534    O    0.42705   0.31144   0.82353   1.000
    O535    O    0.91935   0.38122   0.76491   1.000
    O536    O    0.99061   0.35036   0.79329   1.000
    O537    O    0.92706   0.31145   0.82353   1.000
    O538    O    0.16540   0.44115   0.78630   1.000
    O539    O    0.66540   0.44116   0.78630   1.000
    O540    O    0.11525   0.41791   0.79020   1.000
    O541    O    0.06002   0.39174   0.79804   1.000
    O542    O    0.61525   0.41791   0.79020   1.000
    O543    O    0.56002   0.39175   0.79804   1.000
    O544    O    0.65782   0.44569   0.86136   1.000
    O545    O    0.15782   0.44569   0.86136   1.000
    O546    O    0.22748   0.72250   0.84155   1.000
    O547    O    0.72748   0.72251   0.84155   1.000
    O548    O    0.67504   0.70720   0.84192   1.000
    O549    O    0.61761   0.69069   0.86486   1.000
    O550    O    0.17504   0.70719   0.84192   1.000
    O551    O    0.11761   0.69068   0.86486   1.000
    O552    O    0.04648   0.39390   0.87530   1.000
    O553    O    0.54648   0.39390   0.87530   1.000
    O554    O    0.32520   0.28608   0.86583   1.000
    O555    O    0.82520   0.28608   0.86583   1.000
    O556    O    0.21289   0.72101   0.91363   1.000
    O557    O    0.71289   0.72102   0.91364   1.000
    O558    O    0.88015   0.29895   0.89246   1.000
    O559    O    0.38014   0.29895   0.89246   1.000
    O560    O    0.25221   0.49308   0.92450   1.000
    O561    O    0.75221   0.49308   0.92450   1.000
    O562    O    0.34502   0.29256   0.94908   1.000
    O563    O    0.84502   0.29256   0.94908   1.000
    O564    O    0.20232   0.47274   0.93227   1.000
    O565    O    0.14369   0.44847   0.94137   1.000
    O566    O    0.70232   0.47274   0.93227   1.000
    O567    O    0.64369   0.44848   0.94137   1.000
    O568    O    0.03652   0.39756   0.94577   1.000
    O569    O    0.08758   0.42285   0.94748   1.000
    O570    O    0.53652   0.39757   0.94579   1.000
    O571    O    0.58758   0.42286   0.94748   1.000
    O572    O    0.37476   0.27981   0.72137   1.000
    O573    O    0.87476   0.27981   0.72137   1.000
    O574    O    0.12524   0.72021   0.27859   1.000
    O575    O    0.62524   0.72021   0.27857   1.000
loop_
    _geom_bond_atom_site_label_1
    _geom_bond_atom_site_label_2
    _geom_bond_distance
    _geom_bond_site_symmetry_2
    _ccdc_geom_bond_type
    C161   O264      0.74115      .   S
    C163   O264      0.74115      .   S
    C161   O265      0.86369  1_554   S
    C219   O265      0.86369      .   S
    C161   O266      0.69080  1_554   S
    C159   O266      0.69080      .   S
    C160   O267      0.74114      .   S
    C162   O267      0.74114      .   S
    C160   O268      0.86369  1_554   S
    C218   O268      0.86369      .   S
    C160   O269      0.69085  1_554   S
    C158   O269      0.69085      .   S
    C51    O270      0.51310  1_554   S
    C159   O270      0.51310      .   S
    C50    O271      0.51311  1_554   S
    C158   O271      0.51311      .   S
    C201   O272      0.69239      .   S
    C197   O272      0.69239      .   S
    C201   O273      0.70496      .   S
    C205   O273      0.70496      .   S
    C201   O274      0.54477  1_554   S
    C75    O274      0.54477      .   S
    C200   O275      0.69238      .   S
    C196   O275      0.69238      .   S
    C200   O276      0.70496      .   S
    C204   O276      0.70496      .   S
    C200   O277      0.54478  1_554   S
    C74    O277      0.54478      .   S
    C71    O278      0.54474      .   S
    C197   O278      0.54474      .   S
    C70    O279      0.54463      .   S
    C196   O279      0.54463      .   S
    C95    O280      0.70559      .   S
    C93    O280      0.70559      .   S
    C95    O281      0.54387      .   S
    C15    O281      0.54387  1_556   S
    C95    O282      0.69219      .   S
    C97    O282      0.69219  1_556   S
    C94    O283      0.70559      .   S
    C92    O283      0.70559      .   S
    C94    O284      0.54387      .   S
    C14    O284      0.54387  1_556   S
    C94    O285      0.69218      .   S
    C96    O285      0.69218  1_556   S
    C207   O286      0.72682      .   S
    C205   O286      0.72682      .   S
    C207   O287      0.54571      .   S
    C79    O287      0.54571      .   S
    C207   O288      0.67528  1_554   S
    C143   O288      0.67528      .   S
    C206   O289      0.72682      .   S
    C204   O289      0.72682      .   S
    C206   O290      0.54571      .   S
    C78    O290      0.54571      .   S
    C206   O291      0.67529  1_554   S
    C142   O291      0.67529      .   S
    C39    O292      0.54477      .   S
    C137   O292      0.54477  1_556   S
    C38    O293      0.54477      .   S
    C136   O293      0.54477  1_556   S
    C197   O294      0.67736      .   S
    C231   O294      0.67736      .   S
    C196   O295      0.67735      .   S
    C230   O295      0.67735      .   S
    C204   O296      0.70338      .   S
    C202   O296      0.70338      .   S
    C205   O297      0.70378      .   S
    C203   O297      0.70378      .   S
    C210   O298      0.86783      .   S
    C90    O298      0.86783      .   S
    C210   O299      0.86531      .   S
    C96    O299      0.86531  1_556   S
    C211   O300      0.86783      .   S
    C91    O300      0.86783      .   S
    C211   O301      0.86531      .   S
    C97    O301      0.86531  1_556   S
    C163   O302      0.64080      .   S
    C251   O302      0.64080      .   S
    C163   O303      0.63581      .   S
    C249   O303      0.63581      .   S
    C162   O304      0.64080      .   S
    C250   O304      0.64080      .   S
    C162   O305      0.63581      .   S
    C248   O305      0.63581      .   S
    C251   O306      1.02006      .   S
    C7     O306      1.02006      .   S
    C250   O307      1.02008      .   S
    C6     O307      1.02008      .   S
    C92    O308      0.69679      .   S
    C90    O308      0.69679      .   S
    C92    O309      0.54471      .   S
    C12    O309      0.54471      .   S
    C93    O310      0.69680      .   S
    C91    O310      0.69680      .   S
    C93    O311      0.54471      .   S
    C13    O311      0.54471      .   S
    C248   O312      1.04551      .   S
    C4     O312      1.04551      .   S
    C249   O313      1.04530      .   S
    C5     O313      1.04530      .   S
    C230   O314      0.67545      .   S
    C198   O314      0.67545      .   S
    C230   O315      1.02845      .   S
    C7     O315      1.02845      .   S
    C231   O316      0.67544      .   S
    C199   O316      0.67544      .   S
    C231   O317      1.02842  1_655   S
    C6     O317      1.02842      .   S
    C91    O318      0.72293      .   S
    C89    O318      0.72293      .   S
    C90    O319      0.72306      .   S
    C88    O319      0.72306      .   S
    C202   O320      0.69293      .   S
    C198   O320      0.69293      .   S
    C202   O321      0.54528      .   S
    C76    O321      0.54528      .   S
    C203   O322      0.69284      .   S
    C199   O322      0.69284      .   S
    C203   O323      0.54497      .   S
    C77    O323      0.54497      .   S
    C199   O324      0.54436      .   S
    C73    O324      0.54436      .   S
    C198   O325      0.54437      .   S
    C72    O325      0.54437      .   S
    C260   O326      1.07573      .   S
    C6     O326      1.07573      .   S
    C260   O327      0.63749      .   S
    C176   O327      0.63749      .   S
    C261   O328      1.07572      .   S
    C7     O328      1.07572      .   S
    C261   O329      0.63749      .   S
    C177   O329      0.63749      .   S
    C6     O330      1.04528      .   S
    C256   O330      1.04528      .   S
    C6     O331      1.03512      .   S
    C254   O331      1.03512      .   S
    C7     O332      1.04528      .   S
    C257   O332      1.04528      .   S
    C7     O333      1.03510      .   S
    C255   O333      1.03510      .   S
    C220   O334      0.86658      .   S
    C178   O334      0.86658      .   S
    C220   O335      0.86878      .   S
    C184   O335      0.86878      .   S
    C221   O336      0.86657      .   S
    C179   O336      0.86657      .   S
    C221   O337      0.86892      .   S
    C185   O337      0.86892      .   S
    C68    O338      0.54388  1_565   S
    C191   O338      0.54388      .   S
    C69    O339      0.54385  1_665   S
    C190   O339      0.54385      .   S
    C66    O340      0.54471      .   S
    C188   O340      0.54471      .   S
    C67    O341      0.54469      .   S
    C189   O341      0.54469      .   S
    C191   O342      0.70573      .   S
    C189   O342      0.70573      .   S
    C191   O343      0.69227      .   S
    C193   O343      0.69227  1_565   S
    C190   O344      0.70573      .   S
    C188   O344      0.70573      .   S
    C190   O345      0.69228      .   S
    C192   O345      0.69228  1_565   S
    C257   O346      0.63565      .   S
    C195   O346      0.63565      .   S
    C256   O347      0.63566      .   S
    C194   O347      0.63566      .   S
    C89    O348      0.69680      .   S
    C87    O348      0.69680      .   S
    C89    O349      0.86884      .   S
    C209   O349      0.86884      .   S
    C88    O350      0.69676      .   S
    C86    O350      0.69676      .   S
    C88    O351      0.86873      .   S
    C208   O351      0.86873      .   S
    C189   O352      0.69674      .   S
    C187   O352      0.69674      .   S
    C188   O353      0.69674      .   S
    C186   O353      0.69674      .   S
    C176   O354      0.73786      .   S
    C178   O354      0.73786      .   S
    C176   O355      0.64045      .   S
    C262   O355      0.64045      .   S
    C177   O356      0.73785      .   S
    C179   O356      0.73785      .   S
    C177   O357      0.64045      .   S
    C263   O357      0.64045      .   S
    C195   O358      0.73827      .   S
    C193   O358      0.73827      .   S
    C195   O359      0.64071      .   S
    C259   O359      0.64071      .   S
    C194   O360      0.73826      .   S
    C192   O360      0.73826      .   S
    C194   O361      0.64073      .   S
    C258   O361      0.64073      .   S
    C193   O362      0.86510  1_565   S
    C223   O362      0.86510      .   S
    C192   O363      0.86510  1_565   S
    C222   O363      0.86510      .   S
    C11    O364      0.54409      .   S
    C87    O364      0.54409      .   S
    C10    O365      0.54410      .   S
    C86    O365      0.54410      .   S
    C179   O366      0.69264      .   S
    C181   O366      0.69264      .   S
    C178   O367      0.69273      .   S
    C180   O367      0.69273      .   S
    C187   O368      0.86788      .   S
    C223   O368      0.86788      .   S
    C187   O369      0.72313      .   S
    C185   O369      0.72313      .   S
    C186   O370      0.86788      .   S
    C222   O370      0.86788      .   S
    C186   O371      0.72317      .   S
    C184   O371      0.72317      .   S
    C259   O372      1.02327      .   S
    C5     O372      1.02327      .   S
    C258   O373      1.02329      .   S
    C4     O373      1.02329      .   S
    C184   O374      0.69677      .   S
    C182   O374      0.69677      .   S
    C185   O375      0.69669      .   S
    C183   O375      0.69669      .   S
    C5     O376      1.03301      .   S
    C263   O376      1.03301      .   S
    C5     O377      1.03400      .   S
    C229   O377      1.03400      .   S
    C5     O378      1.07412      .   S
    C253   O378      1.07412      .   S
    C4     O379      1.03296      .   S
    C262   O379      1.03296      .   S
    C4     O380      1.03398      .   S
    C228   O380      1.03398      .   S
    C4     O381      1.07394      .   S
    C252   O381      1.07394      .   S
    C86    O382      0.70514      .   S
    C84    O382      0.70514      .   S
    C87    O383      0.69967      .   S
    C85    O383      0.69967      .   S
    C208   O384      0.86623      .   S
    C82    O384      0.86623      .   S
    C209   O385      0.86623      .   S
    C83    O385      0.86623      .   S
    C181   O386      0.70521      .   S
    C183   O386      0.70521      .   S
    C181   O387      0.54377      .   S
    C63    O387      0.54377      .   S
    C180   O388      0.70516      .   S
    C182   O388      0.70516      .   S
    C180   O389      0.54374      .   S
    C62    O389      0.54374      .   S
    C182   O390      0.54408      .   S
    C64    O390      0.54408      .   S
    C183   O391      0.54408      .   S
    C65    O391      0.54408      .   S
    C254   O392      0.64001      .   S
    C144   O392      0.64001      .   S
    C255   O393      0.64002      .   S
    C145   O393      0.64002      .   S
    C229   O394      0.67551      .   S
    C167   O394      0.67551      .   S
    C229   O395      0.67754      .   S
    C165   O395      0.67754      .   S
    C228   O396      0.67551      .   S
    C166   O396      0.67551      .   S
    C228   O397      0.67754      .   S
    C164   O397      0.67754      .   S
    C54    O398      0.54446      .   S
    C166   O398      0.54446      .   S
    C55    O399      0.54447      .   S
    C167   O399      0.54447      .   S
    C53    O400      0.54454      .   S
    C165   O400      0.54454      .   S
    C52    O401      0.54455      .   S
    C164   O401      0.54455      .   S
    C167   O402      0.69318      .   S
    C171   O402      0.69318      .   S
    C166   O403      0.69318      .   S
    C170   O403      0.69318      .   S
    C165   O404      0.69265      .   S
    C169   O404      0.69265      .   S
    C164   O405      0.69256      .   S
    C168   O405      0.69256      .   S
    C85    O406      0.69565      .   S
    C83    O406      0.69565      .   S
    C85    O407      0.54642      .   S
    C9     O407      0.54642      .   S
    C84    O408      0.69290      .   S
    C82    O408      0.69290      .   S
    C84    O409      0.54378      .   S
    C8     O409      0.54378      .   S
    C170   O410      0.54500      .   S
    C58    O410      0.54500      .   S
    C170   O411      0.70391      .   S
    C172   O411      0.70391      .   S
    C171   O412      0.54501      .   S
    C59    O412      0.54501      .   S
    C171   O413      0.70391      .   S
    C173   O413      0.70391      .   S
    C168   O414      0.54440  1_565   S
    C56    O414      0.54440      .   S
    C168   O415      0.70510      .   S
    C172   O415      0.70510      .   S
    C169   O416      0.54445  1_565   S
    C57    O416      0.54445      .   S
    C169   O417      0.70497      .   S
    C173   O417      0.70497      .   S
    C253   O418      0.63739      .   S
    C145   O418      0.63739      .   S
    C252   O419      0.63740      .   S
    C144   O419      0.63740      .   S
    C144   O420      0.73816      .   S
    C146   O420      0.73816      .   S
    C145   O421      0.73816      .   S
    C147   O421      0.73816      .   S
    C82    O422      0.73767      .   S
    C80    O422      0.73767      .   S
    C83    O423      0.73816      .   S
    C81    O423      0.73816      .   S
    C172   O424      0.72753      .   S
    C174   O424      0.72753      .   S
    C173   O425      0.72753      .   S
    C175   O425      0.72753      .   S
    C175   O426      0.54575  1_655   S
    C60    O426      0.54575      .   S
    C175   O427      0.67531  1_665   S
    C110   O427      0.67531      .   S
    C174   O428      0.54577      .   S
    C61    O428      0.54577      .   S
    C174   O429      0.67529  1_565   S
    C111   O429      0.67529      .   S
    C25    O430      0.54569      .   S
    C110   O430      0.54569  1_455   S
    C24    O431      0.54577      .   S
    C111   O431      0.54577      .   S
    C110   O432      0.72757      .   S
    C108   O432      0.72757      .   S
    C111   O433      0.72753      .   S
    C109   O433      0.72753      .   S
    C45    O434      0.54376      .   S
    C149   O434      0.54376      .   S
    C44    O435      0.54357      .   S
    C148   O435      0.54357      .   S
    C109   O436      0.70499      .   S
    C105   O436      0.70499      .   S
    C109   O437      0.70390      .   S
    C107   O437      0.70390      .   S
    C108   O438      0.70498      .   S
    C104   O438      0.70498      .   S
    C108   O439      0.70390      .   S
    C106   O439      0.70390      .   S
    C21    O440      0.54445      .   S
    C105   O440      0.54445  1_545   S
    C20    O441      0.54446      .   S
    C104   O441      0.54446  1_545   S
    C147   O442      0.69285      .   S
    C149   O442      0.69285      .   S
    C147   O443      0.86620      .   S
    C217   O443      0.86620      .   S
    C146   O444      0.69264      .   S
    C148   O444      0.69264      .   S
    C146   O445      0.86621      .   S
    C216   O445      0.86621      .   S
    C80    O446      0.63756      .   S
    C236   O446      0.63756      .   S
    C80    O447      0.64025      .   S
    C238   O447      0.64025      .   S
    C81    O448      0.63739      .   S
    C237   O448      0.63739      .   S
    C81    O449      0.63998      .   S
    C239   O449      0.63998      .   S
    C22    O450      0.54502      .   S
    C106   O450      0.54502      .   S
    C23    O451      0.54500      .   S
    C107   O451      0.54500      .   S
    C236   O452      1.07390      .   S
    C0     O452      1.07390      .   S
    C237   O453      1.07397      .   S
    C1     O453      1.07397      .   S
    C105   O454      0.69264      .   S
    C101   O454      0.69264      .   S
    C104   O455      0.69264      .   S
    C100   O455      0.69264      .   S
    C107   O456      0.69317      .   S
    C103   O456      0.69317      .   S
    C106   O457      0.69317      .   S
    C102   O457      0.69317      .   S
    C148   O458      0.70561      .   S
    C150   O458      0.70561      .   S
    C149   O459      0.70520      .   S
    C151   O459      0.70520      .   S
    C29    O460      0.54407      .   S
    C119   O460      0.54407      .   S
    C28    O461      0.54408      .   S
    C118   O461      0.54408      .   S
    C27    O462      0.54377      .   S
    C117   O462      0.54377      .   S
    C26    O463      0.54371      .   S
    C116   O463      0.54371      .   S
    C100   O464      0.54450      .   S
    C16    O464      0.54450      .   S
    C100   O465      0.67754      .   S
    C224   O465      0.67754      .   S
    C101   O466      0.54454      .   S
    C17    O466      0.54454      .   S
    C101   O467      0.67755      .   S
    C225   O467      0.67755      .   S
    C102   O468      0.54447      .   S
    C18    O468      0.54447      .   S
    C102   O469      0.67552      .   S
    C224   O469      0.67552      .   S
    C103   O470      0.54447      .   S
    C19    O470      0.54447      .   S
    C103   O471      0.67552      .   S
    C225   O471      0.67552      .   S
    C224   O472      1.03397      .   S
    C0     O472      1.03397      .   S
    C225   O473      1.03398      .   S
    C1     O473      1.03398      .   S
    C238   O474      1.03511      .   S
    C2     O474      1.03511      .   S
    C239   O475      1.03511      .   S
    C3     O475      1.03511      .   S
    C118   O476      0.70509      .   S
    C116   O476      0.70509      .   S
    C118   O477      0.69668      .   S
    C120   O477      0.69668      .   S
    C119   O478      0.70517      .   S
    C117   O478      0.70517      .   S
    C119   O479      0.69669      .   S
    C121   O479      0.69669      .   S
    C116   O480      0.69285      .   S
    C114   O480      0.69285      .   S
    C117   O481      0.69254      .   S
    C115   O481      0.69254      .   S
    C217   O482      0.86871      .   S
    C153   O482      0.86871      .   S
    C216   O483      0.86870      .   S
    C152   O483      0.86870      .   S
    C151   O484      0.54408      .   S
    C47    O484      0.54408      .   S
    C151   O485      0.69674      .   S
    C153   O485      0.69674      .   S
    C150   O486      0.54407      .   S
    C46    O486      0.54407      .   S
    C150   O487      0.69675      .   S
    C152   O487      0.69675      .   S
    C246   O488      1.03294      .   S
    C0     O488      1.03294      .   S
    C246   O489      0.64045      .   S
    C112   O489      0.64045      .   S
    C247   O490      1.03296      .   S
    C1     O490      1.03296      .   S
    C247   O491      0.64045      .   S
    C113   O491      0.64045      .   S
    C0     O492      1.02329      .   S
    C242   O492      1.02329      .   S
    C0     O493      1.04551      .   S
    C232   O493      1.04551      .   S
    C1     O494      1.02317      .   S
    C243   O494      1.02317      .   S
    C1     O495      1.04544      .   S
    C233   O495      1.04544      .   S
    C121   O496      0.72312      .   S
    C123   O496      0.72312      .   S
    C121   O497      0.86894      .   S
    C213   O497      0.86894      .   S
    C120   O498      0.72312      .   S
    C122   O498      0.72312      .   S
    C120   O499      0.86895      .   S
    C212   O499      0.86895      .   S
    C215   O500      0.86789      .   S
    C123   O500      0.86789      .   S
    C215   O501      0.86486      .   S
    C129   O501      0.86486  1_545   S
    C214   O502      0.86789      .   S
    C122   O502      0.86789      .   S
    C214   O503      0.86486      .   S
    C128   O503      0.86486  1_545   S
    C36    O504      0.54436      .   S
    C134   O504      0.54436      .   S
    C37    O505      0.54436      .   S
    C135   O505      0.54436      .   S
    C243   O506      0.64075      .   S
    C131   O506      0.64075      .   S
    C242   O507      0.64072      .   S
    C130   O507      0.64072      .   S
    C122   O508      0.69674      .   S
    C124   O508      0.69674      .   S
    C123   O509      0.69673      .   S
    C125   O509      0.69673      .   S
    C115   O510      0.73797      .   S
    C113   O510      0.73797      .   S
    C115   O511      0.86662      .   S
    C213   O511      0.86662      .   S
    C114   O512      0.73785      .   S
    C112   O512      0.73785      .   S
    C114   O513      0.86659      .   S
    C212   O513      0.86659      .   S
    C129   O514      0.73866      .   S
    C131   O514      0.73866      .   S
    C129   O515      0.69207  1_545   S
    C127   O515      0.69207      .   S
    C128   O516      0.73866      .   S
    C130   O516      0.73866      .   S
    C128   O517      0.69206  1_545   S
    C126   O517      0.69206      .   S
    C131   O518      0.63565      .   S
    C241   O518      0.63565      .   S
    C130   O519      0.63565      .   S
    C240   O519      0.63565      .   S
    C112   O520      0.63750      .   S
    C244   O520      0.63750      .   S
    C113   O521      0.63749      .   S
    C245   O521      0.63749      .   S
    C124   O522      0.70573      .   S
    C126   O522      0.70573      .   S
    C124   O523      0.54469      .   S
    C30    O523      0.54469      .   S
    C125   O524      0.70573      .   S
    C127   O524      0.70573      .   S
    C125   O525      0.54471      .   S
    C31    O525      0.54471      .   S
    C153   O526      0.72312      .   S
    C155   O526      0.72312      .   S
    C152   O527      0.72312      .   S
    C154   O527      0.72312      .   S
    C241   O528      1.04530      .   S
    C3     O528      1.04530      .   S
    C240   O529      1.04529      .   S
    C2     O529      1.04529      .   S
    C127   O530      0.52207      .   S
    C32    O530      0.52207  1_445   S
    C126   O531      0.52211      .   S
    C33    O531      0.52211  1_545   S
    C2     O532      1.07570      .   S
    C244   O532      1.07570      .   S
    C2     O533      1.02844      .   S
    C227   O533      1.02844      .   S
    C2     O534      1.02006      .   S
    C234   O534      1.02006      .   S
    C3     O535      1.07571      .   S
    C245   O535      1.07571      .   S
    C3     O536      1.02841      .   S
    C226   O536      1.02841  1_455   S
    C3     O537      1.02006      .   S
    C235   O537      1.02006      .   S
    C40    O538      0.54498      .   S
    C138   O538      0.54498      .   S
    C41    O539      0.54498      .   S
    C139   O539      0.54498      .   S
    C134   O540      0.69284      .   S
    C138   O540      0.69284      .   S
    C134   O541      0.67544      .   S
    C226   O541      0.67544      .   S
    C135   O542      0.69284      .   S
    C139   O542      0.69284      .   S
    C135   O543      0.67544      .   S
    C227   O543      0.67544      .   S
    C139   O544      0.70378      .   S
    C141   O544      0.70378      .   S
    C138   O545      0.70378      .   S
    C140   O545      0.70378      .   S
    C48    O546      0.54470      .   S
    C156   O546      0.54470      .   S
    C49    O547      0.54470      .   S
    C157   O547      0.54470      .   S
    C155   O548      0.69678      .   S
    C157   O548      0.69678      .   S
    C155   O549      0.86781      .   S
    C219   O549      0.86781      .   S
    C154   O550      0.69679      .   S
    C156   O550      0.69679      .   S
    C154   O551      0.86780      .   S
    C218   O551      0.86780      .   S
    C226   O552      0.67736      .   S
    C132   O552      0.67736      .   S
    C227   O553      0.67736      .   S
    C133   O553      0.67736      .   S
    C232   O554      0.63581      .   S
    C98    O554      0.63581      .   S
    C233   O555      0.63581      .   S
    C99    O555      0.63581      .   S
    C156   O556      0.70551      .   S
    C158   O556      0.70551      .   S
    C157   O557      0.70558      .   S
    C159   O557      0.70558      .   S
    C235   O558      0.64080      .   S
    C99    O558      0.64080      .   S
    C234   O559      0.64081      .   S
    C98    O559      0.64081      .   S
    C42    O560      0.54570      .   S
    C142   O560      0.54570      .   S
    C43    O561      0.54571      .   S
    C143   O561      0.54571      .   S
    C98    O562      0.73849      .   S
    C96    O562      0.73849      .   S
    C99    O563      0.73849      .   S
    C97    O563      0.73849      .   S
    C140   O564      0.72683      .   S
    C142   O564      0.72683      .   S
    C140   O565      0.70496      .   S
    C136   O565      0.70496      .   S
    C141   O566      0.72683      .   S
    C143   O566      0.72683      .   S
    C141   O567      0.70496      .   S
    C137   O567      0.70496      .   S
    C132   O568      0.54445      .   S
    C34    O568      0.54445      .   S
    C132   O569      0.69238      .   S
    C136   O569      0.69238      .   S
    C133   O570      0.54459      .   S
    C35    O570      0.54459      .   S
    C133   O571      0.69239      .   S
    C137   O571      0.69239      .   S
    C0     O572      1.47180      .   S
    C2     O572      1.47180      .   S
    C1     O573      1.47180      .   S
    C3     O573      1.47180      .   S
    C4     O574      1.47181      .   S
    C6     O574      1.47181      .   S
    C5     O575      1.47177      .   S
    C7     O575      1.47177      .   S
