# CIF file generated by openbabel 2.4.90, see http://openbabel.sf.net
data_I
_chemical_name_common ''
_cell_length_a 17.383
_cell_length_b 18.645
_cell_length_c 18.184
_cell_angle_alpha 90.398
_cell_angle_beta 90.035
_cell_angle_gamma 90.007
_space_group_name_H-M_alt 'P 1'
_space_group_name_Hall 'P 1'
loop_
    _symmetry_equiv_pos_as_xyz
    x,y,z
loop_
    _atom_site_label
    _atom_site_type_symbol
    _atom_site_fract_x
    _atom_site_fract_y
    _atom_site_fract_z
    _atom_site_occupancy
    H0      H    0.31291   0.57865   0.03373   1.000
    H1      H    0.86436   0.52432   0.22385   1.000
    H2      H    0.65496   0.43799   0.13397   1.000
    H3      H    0.65679   0.34054   0.22781   1.000
    H4      H    0.86575   0.42706   0.31863   1.000
    H5      H    0.06565   0.71489   0.86082   1.000
    H6      H    0.20851   0.71640   0.86272   1.000
    H7      H    0.20576   0.63853   0.08550   1.000
    H8      H    0.07023   0.08162   0.53726   1.000
    H9      H    0.67244   0.03113   0.21608   1.000
    H10     H    0.85579   0.92222   0.32790   1.000
    H11     H    0.85301   0.82490   0.23246   1.000
    H12     H    0.66967   0.93346   0.12047   1.000
    H13     H    0.46362   0.15300   0.58775   1.000
    H14     H    0.07143   0.27606   0.41140   1.000
    H15     H    0.21459   0.27454   0.41000   1.000
    H16     H    0.45561   0.57718   0.03017   1.000
    H17     H    0.85943   0.52807   0.72058   1.000
    H18     H    0.67198   0.42077   0.82765   1.000
    H19     H    0.67548   0.32406   0.73156   1.000
    H20     H    0.86252   0.43126   0.62403   1.000
    H21     H    0.06289   0.63967   0.08365   1.000
    H22     H    0.45545   0.77911   0.91744   1.000
    H23     H    0.31236   0.77887   0.91659   1.000
    H24     H    0.21265   0.08255   0.54090   1.000
    H25     H    0.66159   0.02539   0.72440   1.000
    H26     H    0.86428   0.93183   0.62847   1.000
    H27     H    0.86134   0.83433   0.72213   1.000
    H28     H    0.65947   0.92832   0.81929   1.000
    H29     H    0.46032   0.19906   0.35661   1.000
    H30     H    0.31710   0.20005   0.35830   1.000
    H31     H    0.32046   0.15245   0.58993   1.000
    H32     H    0.68677   0.42079   0.96668   1.000
    H33     H    0.14229   0.46971   0.28073   1.000
    H34     H    0.33007   0.57657   0.17374   1.000
    H35     H    0.32607   0.67378   0.26933   1.000
    H36     H    0.13837   0.56722   0.37651   1.000
    H37     H    0.93669   0.35932   0.91588   1.000
    H38     H    0.93032   0.91699   0.46315   1.000
    H39     H    0.33744   0.97237   0.27455   1.000
    H40     H    0.13544   0.06627   0.37142   1.000
    H41     H    0.13825   0.16387   0.27790   1.000
    H42     H    0.33954   0.06961   0.17993   1.000
    H43     H    0.53980   0.79873   0.64304   1.000
    H44     H    0.92781   0.72208   0.58815   1.000
    H45     H    0.78466   0.72415   0.58916   1.000
    H46     H    0.54402   0.42167   0.97010   1.000
    H47     H    0.13515   0.47618   0.77770   1.000
    H48     H    0.34492   0.56244   0.86690   1.000
    H49     H    0.34296   0.65964   0.77282   1.000
    H50     H    0.13374   0.57306   0.68263   1.000
    H51     H    0.93480   0.28752   0.13993   1.000
    H52     H    0.79192   0.28517   0.13829   1.000
    H53     H    0.79379   0.35981   0.91434   1.000
    H54     H    0.54507   0.21996   0.08326   1.000
    H55     H    0.68820   0.22092   0.08438   1.000
    H56     H    0.78790   0.91660   0.45901   1.000
    H57     H    0.32826   0.96922   0.78304   1.000
    H58     H    0.14362   0.07719   0.67219   1.000
    H59     H    0.14639   0.17450   0.76763   1.000
    H60     H    0.33101   0.06686   0.87862   1.000
    H61     H    0.53614   0.84826   0.41269   1.000
    H62     H    0.67928   0.84884   0.41020   1.000
    H63     H    0.68302   0.79793   0.64115   1.000
    C64     C    0.76378   0.31935   0.33391   1.000
    C65     C    0.34386   0.62299   0.00871   1.000
    C66     C    0.76165   0.37801   0.27845   1.000
    C67     C    0.75975   0.48655   0.17331   1.000
    C68     C    0.75990   0.54327   0.11571   1.000
    C69     C    0.81917   0.48393   0.22540   1.000
    C70     C    0.70076   0.43525   0.17463   1.000
    C71     C    0.70183   0.38111   0.22679   1.000
    C72     C    0.82002   0.43002   0.27784   1.000
    C73     C    0.09692   0.69898   0.90999   1.000
    C74     C    0.17683   0.70013   0.91150   1.000
    C75     C    0.17535   0.65518   0.03602   1.000
    C76     C    0.76019   0.81592   0.11302   1.000
    C77     C    0.10224   0.12463   0.51097   1.000
    C78     C    0.76120   0.87355   0.17081   1.000
    C79     C    0.76425   0.98254   0.27760   1.000
    C80     C    0.76604   0.04122   0.33424   1.000
    C81     C    0.71163   0.98572   0.21916   1.000
    C82     C    0.81512   0.92429   0.28245   1.000
    C83     C    0.81362   0.87017   0.22941   1.000
    C84     C    0.69116   0.82228   0.52536   1.000
    O85     O    0.71307   0.53460   0.06225   1.000
    O86     O    0.80995   0.32780   0.38780   1.000
    O87     O    0.80675   0.59537   0.12430   1.000
    C88     C    0.71006   0.93159   0.16620   1.000
    C89     C    0.43092   0.16281   0.53773   1.000
    C90     C    0.10307   0.23354   0.43901   1.000
    C91     C    0.18301   0.23255   0.43852   1.000
    C92     C    0.76973   0.31526   0.61353   1.000
    C93     C    0.42381   0.62181   0.00656   1.000
    C94     C    0.76911   0.37213   0.67209   1.000
    C95     C    0.76560   0.48020   0.77982   1.000
    C96     C    0.76294   0.53880   0.83645   1.000
    C97     C    0.81953   0.48312   0.72249   1.000
    C98     C    0.71379   0.42255   0.78317   1.000
    C99     C    0.71560   0.36884   0.72973   1.000
    C100    C    0.82128   0.42946   0.66902   1.000
    C101    C    0.09539   0.65580   0.03534   1.000
    C102    C    0.42360   0.73508   0.94205   1.000
    C103    C    0.34363   0.73472   0.94183   1.000
    C104    C    0.75896   0.81785   0.83269   1.000
    C105    C    0.18219   0.12545   0.51288   1.000
    C106    C    0.76019   0.87560   0.77615   1.000
    C107    C    0.76306   0.98425   0.67092   1.000
    C108    C    0.76436   0.04185   0.61415   1.000
    C109    C    0.70512   0.98342   0.72460   1.000
    C110    C    0.81966   0.93065   0.67034   1.000
    C111    C    0.81802   0.87645   0.72243   1.000
    C112    C    0.70382   0.92954   0.77707   1.000
    C113    C    0.42913   0.18952   0.40754   1.000
    C114    C    0.34915   0.19053   0.40885   1.000
    C115    C    0.35096   0.16240   0.53860   1.000
    C116    C    0.46446   0.67814   0.97362   1.000
    C117    C    0.96972   0.67871   0.97174   1.000
    C118    C    0.55015   0.67779   0.97239   1.000
    C119    C    0.30237   0.67888   0.97542   1.000
    C120    C    0.05539   0.67758   0.97222   1.000
    C121    C    0.21745   0.67813   0.97443   1.000
    C122    C    0.06193   0.17893   0.47432   1.000
    C123    C    0.55654   0.17762   0.47175   1.000
    C124    C    0.97624   0.17856   0.47259   1.000
    C125    C    0.22386   0.17863   0.47567   1.000
    C126    C    0.47081   0.17643   0.47219   1.000
    C127    C    0.30878   0.17715   0.47440   1.000
    C128    C    0.23092   0.68350   0.38652   1.000
    C129    C    0.65597   0.37641   0.99179   1.000
    C130    C    0.23203   0.62609   0.32854   1.000
    C131    C    0.23630   0.51737   0.22160   1.000
    C132    C    0.23887   0.45857   0.16522   1.000
    C133    C    0.18212   0.51471   0.27870   1.000
    C134    C    0.28808   0.57500   0.21809   1.000
    C135    C    0.28594   0.62901   0.27121   1.000
    C136    C    0.17991   0.56874   0.33177   1.000
    C137    C    0.90437   0.34383   0.96454   1.000
    C138    C    0.24059   0.18073   0.16716   1.000
    C139    C    0.89802   0.87400   0.48910   1.000
    C140    C    0.23916   0.12260   0.22345   1.000
    C141    C    0.23636   0.01363   0.32859   1.000
    C142    C    0.23530   0.95595   0.38538   1.000
    C143    C    0.29404   0.01445   0.27460   1.000
    C144    C    0.17991   0.06738   0.32939   1.000
    C145    C    0.18149   0.12167   0.27730   1.000
    C146    C    0.29531   0.06845   0.22227   1.000
    C147    C    0.57093   0.80902   0.59223   1.000
    C148    C    0.89646   0.76482   0.56071   1.000
    C149    C    0.81653   0.76613   0.56090   1.000
    C150    C    0.23602   0.68056   0.66663   1.000
    C151    C    0.57602   0.37724   0.99380   1.000
    C152    C    0.23800   0.62213   0.72241   1.000
    C153    C    0.23996   0.51390   0.82798   1.000
    C154    C    0.24002   0.45710   0.88553   1.000
    C155    C    0.18041   0.51650   0.77596   1.000
    C156    C    0.29899   0.56514   0.82637   1.000
    C157    C    0.29787   0.61914   0.77404   1.000
    C158    C    0.17954   0.57022   0.72336   1.000
    C159    C    0.90333   0.30255   0.09059   1.000
    C160    C    0.82342   0.30094   0.08920   1.000
    C161    C    0.82442   0.34407   0.96401   1.000
    C162    C    0.57674   0.26408   0.05860   1.000
    C163    C    0.65671   0.26483   0.05890   1.000
    C164    C    0.23981   0.18396   0.88666   1.000
    C165    C    0.81807   0.87349   0.48697   1.000
    C166    C    0.23883   0.12633   0.82881   1.000
    C167    C    0.23580   0.01731   0.72193   1.000
    C168    C    0.23402   0.95855   0.66540   1.000
    C169    C    0.28879   0.01443   0.78010   1.000
    C170    C    0.18458   0.07531   0.71741   1.000
    C171    C    0.18608   0.12944   0.77046   1.000
    C172    C    0.29034   0.06855   0.83312   1.000
    C173    C    0.56892   0.83766   0.46248   1.000
    C174    C    0.64888   0.83813   0.46150   1.000
    C175    C    0.65089   0.80813   0.59080   1.000
    C176    C    0.53563   0.32072   0.02677   1.000
    C177    C    0.03025   0.32240   0.02830   1.000
    C178    C    0.44996   0.32067   0.02776   1.000
    C179    C    0.69768   0.32076   0.02523   1.000
    C180    C    0.94459   0.32323   0.02794   1.000
    C181    C    0.78259   0.32185   0.02605   1.000
    C182    C    0.93794   0.81946   0.52583   1.000
    C183    C    0.44345   0.82128   0.52828   1.000
    C184    C    0.02359   0.81961   0.52797   1.000
    C185    C    0.77605   0.82042   0.52399   1.000
    C186    C    0.52916   0.82294   0.52784   1.000
    O187    O    0.71962   0.26557   0.32249   1.000
    O188    O    0.93609   0.67122   0.03373   1.000
    O189    O    0.81353   0.03374   0.38743   1.000
    O190    O    0.70967   0.82187   0.06235   1.000
    O191    O    0.72010   0.09368   0.32479   1.000
    O192    O    0.80989   0.76595   0.11908   1.000
    O193    O    0.58985   0.18150   0.40915   1.000
    O194    O    0.71380   0.53172   0.88826   1.000
    O195    O    0.81997   0.32172   0.56270   1.000
    O196    O    0.80965   0.59090   0.82811   1.000
    O197    O    0.71985   0.26543   0.61917   1.000
    O198    O    0.93647   0.68741   0.90957   1.000
    O199    O    0.81317   0.03454   0.56220   1.000
    O200    O    0.71376   0.82725   0.88724   1.000
    O201    O    0.71676   0.09350   0.62204   1.000
    O202    O    0.80312   0.76399   0.82179   1.000
    O203    O    0.59014   0.17493   0.53424   1.000
    O204    O    0.58338   0.61725   0.98141   1.000
    O205    O    0.58368   0.73796   0.96233   1.000
    O206    O    0.94299   0.11853   0.48440   1.000
    O207    O    0.94272   0.23812   0.45930   1.000
    O208    O    0.28669   0.46586   0.11238   1.000
    O209    O    0.18013   0.67793   0.43694   1.000
    O210    O    0.19311   0.40597   0.17482   1.000
    O211    O    0.28112   0.73306   0.38075   1.000
    O212    O    0.06357   0.31537   0.09066   1.000
    O213    O    0.18647   0.96286   0.43737   1.000
    O214    O    0.28636   0.17190   0.11293   1.000
    O215    O    0.28323   0.90458   0.37751   1.000
    O216    O    0.19614   0.23437   0.17796   1.000
    O217    O    0.40983   0.82506   0.46588   1.000
    O218    O    0.28730   0.46523   0.93871   1.000
    O219    O    0.19005   0.67189   0.61253   1.000
    O220    O    0.19278   0.40529   0.87700   1.000
    O221    O    0.28014   0.73437   0.67794   1.000
    O222    O    0.06375   0.32843   0.96607   1.000
    O223    O    0.18654   0.96576   0.61217   1.000
    O224    O    0.29030   0.17795   0.93735   1.000
    O225    O    0.28007   0.90616   0.67501   1.000
    O226    O    0.19014   0.23397   0.88062   1.000
    O227    O    0.41016   0.81584   0.59078   1.000
    O228    O    0.41658   0.38113   0.01862   1.000
    O229    O    0.41658   0.26038   0.03765   1.000
    O230    O    0.05695   0.87982   0.51739   1.000
    O231    O    0.05694   0.75977   0.54045   1.000
loop_
    _geom_bond_atom_site_label_1
    _geom_bond_atom_site_label_2
    _geom_bond_distance
    _geom_bond_site_symmetry_2
    _ccdc_geom_bond_type
    C93    C65       1.39050      .   S
    C93    H16       1.08946      .   S
    C93    C116      1.40375  1_554   S
    C65    H0        1.08871      .   S
    C65    C119      1.40728  1_554   S
    O228   C178      1.27972      .   S
    C179   C181      1.47621      .   S
    C179   C163      1.40674      .   S
    C179   C129      1.40714  1_554   S
    C181   C160      1.40706      .   S
    C181   C161      1.40731  1_554   S
    C176   C178      1.48932      .   S
    C176   C162      1.40319      .   S
    C176   C151      1.40420  1_554   S
    C178   O229      1.27884      .   S
    C180   C177      1.48921  1_655   S
    C180   C159      1.40282      .   S
    C180   C137      1.40378  1_554   S
    C177   O212      1.28049      .   S
    C177   O222      1.27857  1_554   S
    O188   C117      1.27861  1_554   S
    C101   C75       1.38996      .   S
    C101   H21       1.08887      .   S
    C101   C120      1.40401  1_554   S
    C75    H7        1.09030      .   S
    C75    C121      1.40740  1_554   S
    C162   C163      1.39021      .   S
    C162   H54       1.08917      .   S
    C163   H55       1.09076      .   S
    O85    C68       1.27691      .   S
    O190   C76       1.27787      .   S
    C160   C159      1.38949      .   S
    C160   H52       1.08969      .   S
    C159   H51       1.08897      .   S
    O208   C132      1.27885      .   S
    O214   C138      1.27715      .   S
    C76    O192      1.27585      .   S
    C76    C78       1.49791      .   S
    C68    O87       1.27640      .   S
    C68    C67       1.49361      .   S
    H12    C88       1.08873      .   S
    H2     C70       1.08769      .   S
    C132   O210      1.27568      .   S
    C132   C131      1.49649      .   S
    C88    C78       1.40344      .   S
    C88    C81       1.39035      .   S
    C138   O216      1.27814      .   S
    C138   C140      1.49608      .   S
    C78    C83       1.40334      .   S
    C67    C70       1.40249      .   S
    C67    C69       1.40212      .   S
    H34    C134      1.08861      .   S
    C70    C71       1.39004      .   S
    H42    C146      1.08873      .   S
    H9     C81       1.08852  1_545   S
    C134   C131      1.40343      .   S
    C134   C135      1.39095      .   S
    C81    C79       1.40326      .   S
    C131   C133      1.40344      .   S
    C146   C140      1.40441      .   S
    C146   C143      1.39034      .   S
    C140   C145      1.40189      .   S
    H1     C69       1.08866      .   S
    C69    C72       1.39032      .   S
    C71    H3        1.08869      .   S
    C71    C66       1.40245      .   S
    C83    H11       1.08868      .   S
    C83    C82       1.39122      .   S
    H35    C135      1.08854      .   S
    C135   C130      1.40353      .   S
    H39    C143      1.08860  1_565   S
    C143   C141      1.40390      .   S
    C145   H41       1.08817      .   S
    C145   C144      1.39142      .   S
    C79    C82       1.40380      .   S
    C79    C80       1.49764  1_565   S
    C72    C66       1.40350      .   S
    C72    H4        1.08861      .   S
    C66    C64       1.49333      .   S
    C133   H33       1.08864      .   S
    C133   C136      1.39070      .   S
    C82    H10       1.08812      .   S
    O187   C64       1.27853      .   S
    O191   C80       1.27531      .   S
    C130   C136      1.40300      .   S
    C130   C128      1.49731      .   S
    C141   C144      1.40270      .   S
    C141   C142      1.49617  1_545   S
    C144   H40       1.08765      .   S
    C136   H36       1.08874      .   S
    C64    O86       1.27519      .   S
    C80    O189      1.27960      .   S
    H29    C113      1.08913      .   S
    H30    C114      1.09025      .   S
    O215   C142      1.27690      .   S
    O211   C128      1.27583      .   S
    C142   O213      1.27673      .   S
    C128   O209      1.27800      .   S
    C113   C114      1.39060      .   S
    C113   C126      1.40337      .   S
    C114   C127      1.40735      .   S
    O193   C123      1.27999      .   S
    H15    C91       1.09056      .   S
    H62    C174      1.09208      .   S
    H14    C90       1.08994      .   S
    H61    C173      1.08878      .   S
    C91    C90       1.38986      .   S
    C91    C125      1.40708      .   S
    C90    C122      1.40360      .   S
    H56    C165      1.08866      .   S
    O207   C124      1.27869      .   S
    C174   C173      1.39004      .   S
    C174   C84       1.40704      .   S
    C173   C186      1.40398      .   S
    H38    C139      1.08886      .   S
    O217   C183      1.27840      .   S
    C123   C126      1.49043      .   S
    C123   O203      1.27861      .   S
    C126   C89       1.40380      .   S
    C124   C122      1.48982  1_655   S
    C124   O206      1.27915      .   S
    C122   C77       1.40311      .   S
    C127   C125      1.47663      .   S
    C127   C115      1.40704      .   S
    C125   C105      1.40548      .   S
    C165   C139      1.39032      .   S
    C165   C185      1.40545      .   S
    C139   C182      1.40381      .   S
    C77    C105      1.39038      .   S
    C77    H8        1.08943      .   S
    C105   H24       1.08868      .   S
    O230   C184      1.27924      .   S
    C185   C84       1.47634      .   S
    C185   C149      1.40683      .   S
    C84    C175      1.40742      .   S
    C182   C184      1.48936  1_655   S
    C182   C148      1.40340      .   S
    C186   C183      1.49017      .   S
    C186   C147      1.40312      .   S
    C184   O231      1.27905      .   S
    C183   O227      1.28029      .   S
    C89    C115      1.39008      .   S
    C89    H13       1.08881      .   S
    C115   H31       1.09077      .   S
    C148   C149      1.38963      .   S
    C148   H44       1.08917      .   S
    C149   H45       1.09057      .   S
    O199   C108      1.27666      .   S
    O195   C92       1.27829      .   S
    C175   C147      1.39037      .   S
    C175   H63       1.09008      .   S
    C147   H43       1.08912      .   S
    O223   C168      1.27943      .   S
    O219   C150      1.27647      .   S
    C92    O197      1.27546      .   S
    C92    C94       1.49756      .   S
    C108   O201      1.27724      .   S
    C108   C107      1.49494  1_545   S
    H20    C100      1.08873      .   S
    H26    C110      1.08751      .   S
    C168   O225      1.27585      .   S
    C168   C167      1.49739  1_565   S
    C150   O221      1.27827      .   S
    C150   C152      1.49393      .   S
    C100   C94       1.40317      .   S
    C100   C97       1.39059      .   S
    C110   C107      1.40259      .   S
    C110   C111      1.39007      .   S
    C107   C109      1.40314      .   S
    C94    C99       1.40334      .   S
    H58    C170      1.08811      .   S
    H50    C158      1.08869      .   S
    C170   C167      1.40374      .   S
    C170   C171      1.39144      .   S
    H17    C97       1.08867      .   S
    C167   C169      1.40350      .   S
    H27    C111      1.08817      .   S
    C152   C158      1.40352      .   S
    C152   C157      1.40255      .   S
    C111   C106      1.40230      .   S
    C97    C95       1.40372      .   S
    C158   C155      1.38979      .   S
    H25    C109      1.08853  1_545   S
    C109   C112      1.39042      .   S
    C99    H19       1.08861      .   S
    C99    C98       1.39094      .   S
    H59    C171      1.08867      .   S
    C171   C166      1.40340      .   S
    H49    C157      1.08867      .   S
    C157   C156      1.39022      .   S
    C155   H47       1.08866      .   S
    C155   C153      1.40300      .   S
    C106   C112      1.40417      .   S
    C106   C104      1.49416      .   S
    C112   H28       1.08872      .   S
    C95    C98       1.40381      .   S
    C95    C96       1.49697      .   S
    C169   H57       1.08858  1_545   S
    C169   C172      1.39109      .   S
    C98    H18       1.08845      .   S
    O202   C104      1.27843      .   S
    C156   C153      1.40240      .   S
    C156   H48       1.08762      .   S
    C153   C154      1.49399      .   S
    O196   C96       1.27590      .   S
    C166   C172      1.40355      .   S
    C166   C164      1.49852      .   S
    C104   O200      1.27693      .   S
    C172   H60       1.08862      .   S
    C96    O194      1.27955      .   S
    H5     C73       1.08901      .   S
    H6     C74       1.08920      .   S
    O220   C154      1.27651      .   S
    O226   C164      1.27610      .   S
    C154   O218      1.27695      .   S
    C164   O224      1.27779      .   S
    O198   C117      1.28070      .   S
    C73    C74       1.38954      .   S
    C73    C120      1.40284      .   S
    C74    C121      1.40779      .   S
    H53    C161      1.09017      .   S
    H37    C137      1.08901      .   S
    H23    C103      1.09030      .   S
    H22    C102      1.08918      .   S
    C103   C102      1.39012      .   S
    C103   C119      1.40735      .   S
    C102   C116      1.40334      .   S
    O205   C118      1.27849      .   S
    C161   C137      1.38988      .   S
    H32    C129      1.08873      .   S
    H46    C151      1.08913      .   S
    C117   C120      1.48945  1_655   S
    C118   C116      1.48966      .   S
    C118   O204      1.27955      .   S
    C121   C119      1.47636      .   S
    C129   C151      1.39034      .   S
