# CIF file generated by openbabel 2.4.90, see http://openbabel.sf.net
data_I
_chemical_name_common ''
_cell_length_a 17.383
_cell_length_b 18.645
_cell_length_c 18.184
_cell_angle_alpha 90.398
_cell_angle_beta 90.035
_cell_angle_gamma 90.007
_space_group_name_H-M_alt 'P 1'
_space_group_name_Hall 'P 1'
loop_
    _symmetry_equiv_pos_as_xyz
    x,y,z
loop_
    _atom_site_label
    _atom_site_type_symbol
    _atom_site_fract_x
    _atom_site_fract_y
    _atom_site_fract_z
    _atom_site_occupancy
    Zn0     Zn   0.70015   0.18095   0.38453   1.000
    Zn1     Zn   0.82643   0.68088   0.88468   1.000
    Zn2     Zn   0.70004   0.17824   0.55958   1.000
    Zn3     Zn   0.69357   0.59391   0.97491   1.000
    Zn4     Zn   0.69320   0.76480   0.97196   1.000
    Zn5     Zn   0.83318   0.09417   0.47517   1.000
    Zn6     Zn   0.83348   0.26502   0.47172   1.000
    Zn7     Zn   0.17365   0.31846   0.11562   1.000
    Zn8     Zn   0.30008   0.82001   0.44034   1.000
    Zn9     Zn   0.17328   0.32163   0.94024   1.000
    Zn10    Zn   0.29996   0.81874   0.61560   1.000
    Zn11    Zn   0.30647   0.40427   0.02509   1.000
    Zn12    Zn   0.30686   0.23433   0.02815   1.000
    Zn13    Zn   0.16683   0.90392   0.52500   1.000
    Zn14    Zn   0.16645   0.73419   0.52832   1.000
    Zn15    Zn   0.82659   0.67810   0.05978   1.000
    O16     O    0.75979   0.67927   0.97226   1.000
    O17     O    0.76674   0.17959   0.47214   1.000
    O18     O    0.23990   0.31930   0.02781   1.000
    O19     O    0.23356   0.81903   0.52792   1.000
loop_
    _geom_bond_atom_site_label_1
    _geom_bond_atom_site_label_2
    _geom_bond_distance
    _geom_bond_site_symmetry_2
    _ccdc_geom_bond_type
    Zn11   O18       1.96264      .   S
    O18    Zn12      1.96603      .   S
    Zn15   O16       1.96973  1_554   S
    O17    Zn5       1.96851      .   S
    O17    Zn2       1.96879      .   S
    Zn13   O19       1.96347      .   S
    O19    Zn14      1.96537      .   S
    O16    Zn3       1.96504      .   S
    O16    Zn1       1.97028      .   S
    O16    Zn4       1.97069      .   S
    O17    Zn0       1.96896      .   S
    O17    Zn6       1.97045      .   S
    O18    Zn7       1.96943      .   S
    O18    Zn9       1.96912  1_554   S
    O19    Zn8       1.96878      .   S
    O19    Zn10      1.96778      .   S
