# CIF file generated by openbabel 2.4.90, see http://openbabel.sf.net
data_I
_chemical_name_common ''
_cell_length_a 17.383
_cell_length_b 18.645
_cell_length_c 18.184
_cell_angle_alpha 90.398
_cell_angle_beta 90.035
_cell_angle_gamma 90.007
_space_group_name_H-M_alt 'P 1'
_space_group_name_Hall 'P 1'
loop_
    _symmetry_equiv_pos_as_xyz
    x,y,z
loop_
    _atom_site_label
    _atom_site_type_symbol
    _atom_site_fract_x
    _atom_site_fract_y
    _atom_site_fract_z
    _atom_site_occupancy
    N0      N    0.74013   0.32169   0.02690   1.000
    N1      N    0.23716   0.07159   0.77566   1.000
    N2      N    0.73357   0.82121   0.52635   1.000
    N3      N    0.76113   0.43192   0.22545   1.000
    N4      N    0.25991   0.67812   0.97344   1.000
    N5      N    0.26634   0.17774   0.47363   1.000
    N6      N    0.76689   0.42652   0.72552   1.000
    N7      N    0.76167   0.92992   0.72349   1.000
    N8      N    0.23450   0.57144   0.27543   1.000
    N9      N    0.76289   0.92825   0.22397   1.000
    N10     N    0.23861   0.56830   0.77553   1.000
    N11     N    0.23781   0.06817   0.27611   1.000
    Zr12    Zr   0.75992   0.67939   0.97272   1.000
    Zr13    Zr   0.23338   0.81918   0.52744   1.000
    Zr14    Zr   0.24003   0.31960   0.02738   1.000
    Zr15    Zr   0.76672   0.17960   0.47263   1.000
    O16     O    0.60455   0.67885   0.97288   1.000
    O17     O    0.91529   0.67908   0.97270   1.000
    O18     O    0.76024   0.59780   0.05655   1.000
    O19     O    0.76064   0.76118   0.05567   1.000
    O20     O    0.76190   0.59616   0.89124   1.000
    O21     O    0.76016   0.76199   0.89009   1.000
    O22     O    0.23966   0.23678   0.10988   1.000
    O23     O    0.23468   0.90109   0.44401   1.000
    O24     O    0.76509   0.26274   0.39058   1.000
    O25     O    0.38883   0.81987   0.52734   1.000
    O26     O    0.07803   0.81975   0.52725   1.000
    O27     O    0.23934   0.23819   0.94425   1.000
    O28     O    0.23432   0.90215   0.60937   1.000
    O29     O    0.76577   0.09702   0.39055   1.000
    O30     O    0.08469   0.32047   0.02745   1.000
    O31     O    0.39545   0.32023   0.02726   1.000
    O32     O    0.23864   0.40232   0.10929   1.000
    O33     O    0.23966   0.40165   0.94389   1.000
    O34     O    0.92197   0.17897   0.47288   1.000
    O35     O    0.61121   0.17896   0.47269   1.000
    O36     O    0.76716   0.26083   0.55602   1.000
    O37     O    0.23330   0.73778   0.44422   1.000
    O38     O    0.23488   0.73661   0.60975   1.000
    O39     O    0.76522   0.09731   0.55587   1.000
loop_
    _geom_bond_atom_site_label_1
    _geom_bond_atom_site_label_2
    _geom_bond_distance
    _geom_bond_site_symmetry_2
    _ccdc_geom_bond_type
    Zr12   O16       2.70075      .   S
    N4     O16       5.99090      .   S
    Zr12   O17       2.70078      .   S
    N4     O17       5.99067  1_455   S
    Zr12   O18       2.16107  1_556   S
    N3     O18       4.37382      .   S
    Zr12   O19       2.13751  1_556   S
    N9     O19       4.35168      .   S
    Zr12   O20       2.13838      .   S
    N6     O20       4.35437      .   S
    Zr12   O21       2.15900      .   S
    N7     O21       4.37193      .   S
    N11    O22       4.37640      .   S
    Zr14   O22       2.16036      .   S
    N11    O23       4.37731  1_545   S
    Zr13   O23       2.16026      .   S
    N3     O24       4.37079      .   S
    Zr15   O24       2.15908      .   S
    N2     O25       5.99268      .   S
    Zr13   O25       2.70234      .   S
    N2     O26       5.98778  1_655   S
    Zr13   O26       2.70042      .   S
    N1     O27       4.34928      .   S
    Zr14   O27       2.13475  1_554   S
    N1     O28       4.35820  1_545   S
    Zr13   O28       2.14034      .   S
    N9     O29       4.35290  1_565   S
    Zr15   O29       2.13691      .   S
    Zr14   O30       2.70038      .   S
    N0     O30       5.98950  1_655   S
    Zr14   O31       2.70174      .   S
    N0     O31       5.99157      .   S
    Zr14   O32       2.13682      .   S
    N8     O32       4.35234      .   S
    Zr14   O33       2.16282  1_554   S
    N10    O33       4.37711      .   S
    N5     O34       5.98634  1_455   S
    Zr15   O34       2.69875      .   S
    N5     O35       5.99481      .   S
    Zr15   O35       2.70328      .   S
    N6     O36       4.34879      .   S
    Zr15   O36       2.13575      .   S
    N8     O37       4.34822      .   S
    Zr13   O37       2.13575      .   S
    Zr13   O38       2.15474      .   S
    N10    O38       4.36710      .   S
    Zr15   O39       2.16296      .   S
    N7     O39       4.37794  1_565   S
