# CIF file generated by openbabel 2.4.90, see http://openbabel.sf.net
data_I
_chemical_name_common ''
_cell_length_a 17.383
_cell_length_b 18.645
_cell_length_c 18.184
_cell_angle_alpha 90.398
_cell_angle_beta 90.035
_cell_angle_gamma 90.007
_space_group_name_H-M_alt 'P 1'
_space_group_name_Hall 'P 1'
loop_
    _symmetry_equiv_pos_as_xyz
    x,y,z
loop_
    _atom_site_label
    _atom_site_type_symbol
    _atom_site_fract_x
    _atom_site_fract_y
    _atom_site_fract_z
    _atom_site_occupancy
    C0      C    0.82659   0.67810   0.05978   1.000
    C1      C    0.70015   0.18095   0.38453   1.000
    C2      C    0.82643   0.68088   0.88468   1.000
    C3      C    0.70004   0.17824   0.55958   1.000
    C4      C    0.69357   0.59391   0.97491   1.000
    C5      C    0.69320   0.76480   0.97196   1.000
    C6      C    0.83318   0.09417   0.47517   1.000
    C7      C    0.83348   0.26502   0.47172   1.000
    C8      C    0.17365   0.31846   0.11562   1.000
    C9      C    0.30008   0.82001   0.44034   1.000
    C10     C    0.17328   0.32163   0.94024   1.000
    C11     C    0.29996   0.81874   0.61560   1.000
    C12     C    0.30647   0.40427   0.02509   1.000
    C13     C    0.30686   0.23433   0.02815   1.000
    C14     C    0.16683   0.90392   0.52500   1.000
    C15     C    0.16645   0.73419   0.52832   1.000
    C16     C    0.31291   0.57865   0.03373   1.000
    C17     C    0.86436   0.52432   0.22385   1.000
    C18     C    0.65496   0.43799   0.13397   1.000
    C19     C    0.65679   0.34054   0.22781   1.000
    C20     C    0.86575   0.42706   0.31863   1.000
    C21     C    0.06565   0.71489   0.86082   1.000
    C22     C    0.20851   0.71640   0.86272   1.000
    C23     C    0.20576   0.63853   0.08550   1.000
    C24     C    0.07023   0.08162   0.53726   1.000
    C25     C    0.67244   0.03113   0.21608   1.000
    C26     C    0.85579   0.92222   0.32790   1.000
    C27     C    0.85301   0.82490   0.23246   1.000
    C28     C    0.66967   0.93346   0.12047   1.000
    C29     C    0.46362   0.15300   0.58775   1.000
    C30     C    0.07143   0.27606   0.41140   1.000
    C31     C    0.21459   0.27454   0.41000   1.000
    C32     C    0.45561   0.57718   0.03017   1.000
    C33     C    0.85943   0.52807   0.72058   1.000
    C34     C    0.67198   0.42077   0.82765   1.000
    C35     C    0.67548   0.32406   0.73156   1.000
    C36     C    0.86252   0.43126   0.62403   1.000
    C37     C    0.06289   0.63967   0.08365   1.000
    C38     C    0.45545   0.77911   0.91744   1.000
    C39     C    0.31236   0.77887   0.91659   1.000
    C40     C    0.21265   0.08255   0.54090   1.000
    C41     C    0.66159   0.02539   0.72440   1.000
    C42     C    0.86428   0.93183   0.62847   1.000
    C43     C    0.86134   0.83433   0.72213   1.000
    C44     C    0.65947   0.92832   0.81929   1.000
    C45     C    0.46032   0.19906   0.35661   1.000
    C46     C    0.31710   0.20005   0.35830   1.000
    C47     C    0.32046   0.15245   0.58993   1.000
    C48     C    0.68677   0.42079   0.96668   1.000
    C49     C    0.14229   0.46971   0.28073   1.000
    C50     C    0.33007   0.57657   0.17374   1.000
    C51     C    0.32607   0.67378   0.26933   1.000
    C52     C    0.13837   0.56722   0.37651   1.000
    C53     C    0.93669   0.35932   0.91588   1.000
    C54     C    0.93032   0.91699   0.46315   1.000
    C55     C    0.33744   0.97237   0.27455   1.000
    C56     C    0.13544   0.06627   0.37142   1.000
    C57     C    0.13825   0.16387   0.27790   1.000
    C58     C    0.33954   0.06961   0.17993   1.000
    C59     C    0.53980   0.79873   0.64304   1.000
    C60     C    0.92781   0.72208   0.58815   1.000
    C61     C    0.78466   0.72415   0.58916   1.000
    C62     C    0.54402   0.42167   0.97010   1.000
    C63     C    0.13515   0.47618   0.77770   1.000
    C64     C    0.34492   0.56244   0.86690   1.000
    C65     C    0.34296   0.65964   0.77282   1.000
    C66     C    0.13374   0.57306   0.68263   1.000
    C67     C    0.93480   0.28752   0.13993   1.000
    C68     C    0.79192   0.28517   0.13829   1.000
    C69     C    0.79379   0.35981   0.91434   1.000
    C70     C    0.54507   0.21996   0.08326   1.000
    C71     C    0.68820   0.22092   0.08438   1.000
    C72     C    0.78790   0.91660   0.45901   1.000
    C73     C    0.32826   0.96922   0.78304   1.000
    C74     C    0.14362   0.07719   0.67219   1.000
    C75     C    0.14639   0.17450   0.76763   1.000
    C76     C    0.33101   0.06686   0.87862   1.000
    C77     C    0.53614   0.84826   0.41269   1.000
    C78     C    0.67928   0.84884   0.41020   1.000
    C79     C    0.68302   0.79793   0.64115   1.000
    C80     C    0.76378   0.31935   0.33391   1.000
    C81     C    0.34386   0.62299   0.00871   1.000
    C82     C    0.76165   0.37801   0.27845   1.000
    C83     C    0.75975   0.48655   0.17331   1.000
    C84     C    0.75990   0.54327   0.11571   1.000
    C85     C    0.81917   0.48393   0.22540   1.000
    C86     C    0.70076   0.43525   0.17463   1.000
    C87     C    0.70183   0.38111   0.22679   1.000
    C88     C    0.82002   0.43002   0.27784   1.000
    C89     C    0.09692   0.69898   0.90999   1.000
    C90     C    0.17683   0.70013   0.91150   1.000
    C91     C    0.17535   0.65518   0.03602   1.000
    C92     C    0.76019   0.81592   0.11302   1.000
    C93     C    0.10224   0.12463   0.51097   1.000
    C94     C    0.76120   0.87355   0.17081   1.000
    C95     C    0.76425   0.98254   0.27760   1.000
    C96     C    0.76604   0.04122   0.33424   1.000
    C97     C    0.71163   0.98572   0.21916   1.000
    C98     C    0.81512   0.92429   0.28245   1.000
    C99     C    0.81362   0.87017   0.22941   1.000
    C100    C    0.71006   0.93159   0.16620   1.000
    C101    C    0.43092   0.16281   0.53773   1.000
    C102    C    0.10307   0.23354   0.43901   1.000
    C103    C    0.18301   0.23255   0.43852   1.000
    C104    C    0.76973   0.31526   0.61353   1.000
    C105    C    0.42381   0.62181   0.00656   1.000
    C106    C    0.76911   0.37213   0.67209   1.000
    C107    C    0.76560   0.48020   0.77982   1.000
    C108    C    0.76294   0.53880   0.83645   1.000
    C109    C    0.81953   0.48312   0.72249   1.000
    C110    C    0.71379   0.42255   0.78317   1.000
    C111    C    0.71560   0.36884   0.72973   1.000
    C112    C    0.82128   0.42946   0.66902   1.000
    C113    C    0.09539   0.65580   0.03534   1.000
    C114    C    0.42360   0.73508   0.94205   1.000
    C115    C    0.34363   0.73472   0.94183   1.000
    C116    C    0.75896   0.81785   0.83269   1.000
    C117    C    0.18219   0.12545   0.51288   1.000
    C118    C    0.76019   0.87560   0.77615   1.000
    C119    C    0.76306   0.98425   0.67092   1.000
    C120    C    0.76436   0.04185   0.61415   1.000
    C121    C    0.70512   0.98342   0.72460   1.000
    C122    C    0.81966   0.93065   0.67034   1.000
    C123    C    0.81802   0.87645   0.72243   1.000
    C124    C    0.70382   0.92954   0.77707   1.000
    C125    C    0.42913   0.18952   0.40754   1.000
    C126    C    0.34915   0.19053   0.40885   1.000
    C127    C    0.35096   0.16240   0.53860   1.000
    C128    C    0.46446   0.67814   0.97362   1.000
    C129    C    0.96972   0.67871   0.97174   1.000
    C130    C    0.55015   0.67779   0.97239   1.000
    C131    C    0.30237   0.67888   0.97542   1.000
    C132    C    0.05539   0.67758   0.97222   1.000
    C133    C    0.21745   0.67813   0.97443   1.000
    C134    C    0.06193   0.17893   0.47432   1.000
    C135    C    0.55654   0.17762   0.47175   1.000
    C136    C    0.97624   0.17856   0.47259   1.000
    C137    C    0.22386   0.17863   0.47567   1.000
    C138    C    0.47081   0.17643   0.47219   1.000
    C139    C    0.30878   0.17715   0.47440   1.000
    C140    C    0.23092   0.68350   0.38652   1.000
    C141    C    0.65597   0.37641   0.99179   1.000
    C142    C    0.23203   0.62609   0.32854   1.000
    C143    C    0.23630   0.51737   0.22160   1.000
    C144    C    0.23887   0.45857   0.16522   1.000
    C145    C    0.18212   0.51471   0.27870   1.000
    C146    C    0.28808   0.57500   0.21809   1.000
    C147    C    0.28594   0.62901   0.27121   1.000
    C148    C    0.17991   0.56874   0.33177   1.000
    C149    C    0.90437   0.34383   0.96454   1.000
    C150    C    0.24059   0.18073   0.16716   1.000
    C151    C    0.89802   0.87400   0.48910   1.000
    C152    C    0.23916   0.12260   0.22345   1.000
    C153    C    0.23636   0.01363   0.32859   1.000
    C154    C    0.23530   0.95595   0.38538   1.000
    C155    C    0.29404   0.01445   0.27460   1.000
    C156    C    0.17991   0.06738   0.32939   1.000
    C157    C    0.18149   0.12167   0.27730   1.000
    C158    C    0.29531   0.06845   0.22227   1.000
    C159    C    0.57093   0.80902   0.59223   1.000
    C160    C    0.89646   0.76482   0.56071   1.000
    C161    C    0.81653   0.76613   0.56090   1.000
    C162    C    0.23602   0.68056   0.66663   1.000
    C163    C    0.57602   0.37724   0.99380   1.000
    C164    C    0.23800   0.62213   0.72241   1.000
    C165    C    0.23996   0.51390   0.82798   1.000
    C166    C    0.24002   0.45710   0.88553   1.000
    C167    C    0.18041   0.51650   0.77596   1.000
    C168    C    0.29899   0.56514   0.82637   1.000
    C169    C    0.29787   0.61914   0.77404   1.000
    C170    C    0.17954   0.57022   0.72336   1.000
    C171    C    0.90333   0.30255   0.09059   1.000
    C172    C    0.82342   0.30094   0.08920   1.000
    C173    C    0.82442   0.34407   0.96401   1.000
    C174    C    0.57674   0.26408   0.05860   1.000
    C175    C    0.65671   0.26483   0.05890   1.000
    C176    C    0.23981   0.18396   0.88666   1.000
    C177    C    0.81807   0.87349   0.48697   1.000
    C178    C    0.23883   0.12633   0.82881   1.000
    C179    C    0.23580   0.01731   0.72193   1.000
    C180    C    0.23402   0.95855   0.66540   1.000
    C181    C    0.28879   0.01443   0.78010   1.000
    C182    C    0.18458   0.07531   0.71741   1.000
    C183    C    0.18608   0.12944   0.77046   1.000
    C184    C    0.29034   0.06855   0.83312   1.000
    C185    C    0.56892   0.83766   0.46248   1.000
    C186    C    0.64888   0.83813   0.46150   1.000
    C187    C    0.65089   0.80813   0.59080   1.000
    C188    C    0.53563   0.32072   0.02677   1.000
    C189    C    0.03025   0.32240   0.02830   1.000
    C190    C    0.44996   0.32067   0.02776   1.000
    C191    C    0.69768   0.32076   0.02523   1.000
    C192    C    0.94459   0.32323   0.02794   1.000
    C193    C    0.78259   0.32185   0.02605   1.000
    C194    C    0.93794   0.81946   0.52583   1.000
    C195    C    0.44345   0.82128   0.52828   1.000
    C196    C    0.02359   0.81961   0.52797   1.000
    C197    C    0.77605   0.82042   0.52399   1.000
    C198    C    0.52916   0.82294   0.52784   1.000
    C199    C    0.69116   0.82228   0.52536   1.000
    C200    C    0.71307   0.53460   0.06225   1.000
    C201    C    0.80995   0.32780   0.38780   1.000
    C202    C    0.80675   0.59537   0.12430   1.000
    C203    C    0.71962   0.26557   0.32249   1.000
    C204    C    0.93609   0.67122   0.03373   1.000
    C205    C    0.81353   0.03374   0.38743   1.000
    C206    C    0.70967   0.82187   0.06235   1.000
    C207    C    0.72010   0.09368   0.32479   1.000
    C208    C    0.80989   0.76595   0.11908   1.000
    C209    C    0.58985   0.18150   0.40915   1.000
    C210    C    0.71380   0.53172   0.88826   1.000
    C211    C    0.81997   0.32172   0.56270   1.000
    C212    C    0.80965   0.59090   0.82811   1.000
    C213    C    0.71985   0.26543   0.61917   1.000
    C214    C    0.93647   0.68741   0.90957   1.000
    C215    C    0.81317   0.03454   0.56220   1.000
    C216    C    0.71376   0.82725   0.88724   1.000
    C217    C    0.71676   0.09350   0.62204   1.000
    C218    C    0.80312   0.76399   0.82179   1.000
    C219    C    0.59014   0.17493   0.53424   1.000
    C220    C    0.75979   0.67927   0.97226   1.000
    C221    C    0.58338   0.61725   0.98141   1.000
    C222    C    0.58368   0.73796   0.96233   1.000
    C223    C    0.76674   0.17959   0.47214   1.000
    C224    C    0.94299   0.11853   0.48440   1.000
    C225    C    0.94272   0.23812   0.45930   1.000
    C226    C    0.28669   0.46586   0.11238   1.000
    C227    C    0.18013   0.67793   0.43694   1.000
    C228    C    0.19311   0.40597   0.17482   1.000
    C229    C    0.28112   0.73306   0.38075   1.000
    C230    C    0.06357   0.31537   0.09066   1.000
    C231    C    0.18647   0.96286   0.43737   1.000
    C232    C    0.28636   0.17190   0.11293   1.000
    C233    C    0.28323   0.90458   0.37751   1.000
    C234    C    0.19614   0.23437   0.17796   1.000
    C235    C    0.40983   0.82506   0.46588   1.000
    C236    C    0.28730   0.46523   0.93871   1.000
    C237    C    0.19005   0.67189   0.61253   1.000
    C238    C    0.19278   0.40529   0.87700   1.000
    C239    C    0.28014   0.73437   0.67794   1.000
    C240    C    0.06375   0.32843   0.96607   1.000
    C241    C    0.18654   0.96576   0.61217   1.000
    C242    C    0.29030   0.17795   0.93735   1.000
    C243    C    0.28007   0.90616   0.67501   1.000
    C244    C    0.19014   0.23397   0.88062   1.000
    C245    C    0.41016   0.81584   0.59078   1.000
    C246    C    0.23990   0.31930   0.02781   1.000
    C247    C    0.41658   0.38113   0.01862   1.000
    C248    C    0.41658   0.26038   0.03765   1.000
    C249    C    0.23356   0.81903   0.52792   1.000
    C250    C    0.05695   0.87982   0.51739   1.000
    C251    C    0.05694   0.75977   0.54045   1.000
    O252    O    0.38383   0.62240   0.00763   1.000
    O253    O    0.43971   0.59950   0.01836   1.000
    O254    O    0.44414   0.64997   0.99009   1.000
    O255    O    0.32838   0.60082   0.02122   1.000
    O256    O    0.32312   0.65094   0.99206   1.000
    O257    O    0.36153   0.39270   0.02185   1.000
    O258    O    0.43327   0.35090   0.02319   1.000
    O259    O    0.27318   0.36179   0.02645   1.000
    O260    O    0.29658   0.43507   0.06873   1.000
    O261    O    0.29689   0.43475   0.98190   1.000
    O262    O    0.74013   0.32131   0.02564   1.000
    O263    O    0.67719   0.29280   0.04206   1.000
    O264    O    0.67682   0.34859   0.00851   1.000
    O265    O    0.80300   0.31139   0.05762   1.000
    O266    O    0.80350   0.33296   0.99503   1.000
    O267    O    0.49280   0.32070   0.02726   1.000
    O268    O    0.55619   0.29240   0.04268   1.000
    O269    O    0.55583   0.34898   0.01028   1.000
    O270    O    0.43327   0.29053   0.03270   1.000
    O271    O    0.27338   0.27682   0.02798   1.000
    O272    O    0.98742   0.32281   0.02812   1.000
    O273    O    0.92396   0.31289   0.05926   1.000
    O274    O    0.92448   0.33353   0.99624   1.000
    O275    O    0.36172   0.24736   0.03290   1.000
    O276    O    0.29661   0.20312   0.07054   1.000
    O277    O    0.29858   0.20614   0.98275   1.000
    O278    O    0.04691   0.31888   0.05948   1.000
    O279    O    0.04700   0.32542   0.99718   1.000
    O280    O    0.88134   0.67466   0.04675   1.000
    O281    O    0.95291   0.67497   0.00273   1.000
    O282    O    0.13537   0.65549   0.03568   1.000
    O283    O    0.07914   0.64773   0.05949   1.000
    O284    O    0.07539   0.66669   0.00378   1.000
    O285    O    0.19056   0.64686   0.06076   1.000
    O286    O    0.19640   0.66665   0.00522   1.000
    O287    O    0.61672   0.26446   0.05875   1.000
    O288    O    0.56090   0.24202   0.07093   1.000
    O289    O    0.67245   0.24287   0.07164   1.000
    O290    O    0.81824   0.72203   0.08943   1.000
    O291    O    0.81667   0.63674   0.09204   1.000
    O292    O    0.79319   0.67869   0.01602   1.000
    O293    O    0.73649   0.53893   0.08898   1.000
    O294    O    0.70332   0.56425   0.01858   1.000
    O295    O    0.73493   0.81889   0.08768   1.000
    O296    O    0.70144   0.79334   0.01715   1.000
    O297    O    0.86337   0.30175   0.08989   1.000
    O298    O    0.80767   0.29305   0.11374   1.000
    O299    O    0.91906   0.29503   0.11526   1.000
    O300    O    0.11861   0.31692   0.10314   1.000
    O301    O    0.26278   0.46221   0.13880   1.000
    O302    O    0.26347   0.17631   0.14005   1.000
    O303    O    0.78504   0.79093   0.11605   1.000
    O304    O    0.76070   0.84474   0.14191   1.000
    O305    O    0.18338   0.36221   0.14522   1.000
    O306    O    0.18489   0.27641   0.14679   1.000
    O307    O    0.78333   0.56932   0.12000   1.000
    O308    O    0.75983   0.51491   0.14451   1.000
    O309    O    0.68987   0.93253   0.14333   1.000
    O310    O    0.67786   0.43662   0.15430   1.000
    O311    O    0.21599   0.43227   0.17002   1.000
    O312    O    0.23759   0.48797   0.19341   1.000
    O313    O    0.73563   0.90257   0.16850   1.000
    O314    O    0.71085   0.95866   0.19268   1.000
    O315    O    0.21836   0.20755   0.17256   1.000
    O316    O    0.23987   0.15166   0.19530   1.000
    O317    O    0.78741   0.87186   0.20011   1.000
    O318    O    0.73026   0.46090   0.17397   1.000
    O319    O    0.78946   0.48524   0.19935   1.000
    O320    O    0.30907   0.57579   0.19591   1.000
    O321    O    0.70129   0.40818   0.20071   1.000
    O322    O    0.31742   0.06903   0.20110   1.000
    O323    O    0.69204   0.00843   0.21762   1.000
    O324    O    0.26219   0.54619   0.21984   1.000
    O325    O    0.28701   0.60200   0.24465   1.000
    O326    O    0.73794   0.98413   0.24838   1.000
    O327    O    0.20921   0.51604   0.25015   1.000
    O328    O    0.26723   0.09553   0.22286   1.000
    O329    O    0.29467   0.04145   0.24843   1.000
    O330    O    0.21033   0.12214   0.25037   1.000
    O331    O    0.84177   0.50412   0.22462   1.000
    O332    O    0.81960   0.45697   0.25162   1.000
    O333    O    0.67931   0.36082   0.22730   1.000
    O334    O    0.73174   0.37956   0.25262   1.000
    O335    O    0.83331   0.84754   0.23093   1.000
    O336    O    0.81437   0.89723   0.25593   1.000
    O337    O    0.30600   0.65139   0.27027   1.000
    O338    O    0.25899   0.62755   0.29987   1.000
    O339    O    0.31574   0.99341   0.27458   1.000
    O340    O    0.26520   0.01404   0.30160   1.000
    O341    O    0.15987   0.14277   0.27760   1.000
    O342    O    0.18070   0.09453   0.30334   1.000
    O343    O    0.78969   0.95342   0.28002   1.000
    O344    O    0.76515   0.01188   0.30592   1.000
    O345    O    0.79083   0.40402   0.27814   1.000
    O346    O    0.84288   0.42854   0.29823   1.000
    O347    O    0.76271   0.34868   0.30618   1.000
    O348    O    0.16220   0.49221   0.27971   1.000
    O349    O    0.18102   0.54173   0.30523   1.000
    O350    O    0.83545   0.92325   0.30517   1.000
    O351    O    0.74170   0.29246   0.32820   1.000
    O352    O    0.70988   0.22326   0.35351   1.000
    O353    O    0.74307   0.06745   0.32951   1.000
    O354    O    0.71012   0.13731   0.35466   1.000
    O355    O    0.20597   0.59742   0.33015   1.000
    O356    O    0.23148   0.65480   0.35753   1.000
    O357    O    0.20813   0.04050   0.32899   1.000
    O358    O    0.23583   0.98479   0.35698   1.000
    O359    O    0.15767   0.06682   0.35040   1.000
    O360    O    0.15914   0.56798   0.35414   1.000
    O361    O    0.78686   0.32358   0.36085   1.000
    O362    O    0.78979   0.03748   0.36083   1.000
    O363    O    0.44473   0.19429   0.38207   1.000
    O364    O    0.33312   0.19529   0.38357   1.000
    O365    O    0.25927   0.93027   0.38144   1.000
    O366    O    0.29165   0.86230   0.40892   1.000
    O367    O    0.25602   0.70828   0.38363   1.000
    O368    O    0.29060   0.77654   0.41054   1.000
    O369    O    0.64500   0.18123   0.39684   1.000
    O370    O    0.21089   0.95941   0.41137   1.000
    O371    O    0.20552   0.68071   0.41173   1.000
    O372    O    0.82335   0.06396   0.43130   1.000
    O373    O    0.82171   0.29641   0.42976   1.000
    O374    O    0.38914   0.19003   0.40819   1.000
    O375    O    0.44997   0.18298   0.43986   1.000
    O376    O    0.32896   0.18384   0.44162   1.000
    O377    O    0.57320   0.17956   0.44045   1.000
    O378    O    0.19880   0.25355   0.42426   1.000
    O379    O    0.66408   0.84349   0.43585   1.000
    O380    O    0.08725   0.25480   0.42520   1.000
    O381    O    0.55253   0.84296   0.43758   1.000
    O382    O    0.17329   0.70606   0.48263   1.000
    O383    O    0.17665   0.93339   0.48118   1.000
    O384    O    0.14304   0.23304   0.43876   1.000
    O385    O    0.20343   0.20559   0.45709   1.000
    O386    O    0.08250   0.20623   0.45666   1.000
    O387    O    0.35495   0.82254   0.45311   1.000
    O388    O    0.80299   0.89504   0.47299   1.000
    O389    O    0.88810   0.25157   0.46551   1.000
    O390    O    0.95948   0.20834   0.46594   1.000
    O391    O    0.60890   0.83789   0.46199   1.000
    O392    O    0.67002   0.83020   0.49343   1.000
    O393    O    0.54904   0.83030   0.49516   1.000
    O394    O    0.91417   0.89549   0.47612   1.000
    O395    O    0.42664   0.82317   0.49708   1.000
    O396    O    0.82672   0.29337   0.51721   1.000
    O397    O    0.51367   0.17703   0.47197   1.000
    O398    O    0.57334   0.17628   0.50299   1.000
    O399    O    0.79996   0.13688   0.47365   1.000
    O400    O    0.73339   0.17892   0.51586   1.000
    O401    O    0.45087   0.16962   0.50496   1.000
    O402    O    0.01909   0.17874   0.47345   1.000
    O403    O    0.95962   0.14855   0.47849   1.000
    O404    O    0.08208   0.15178   0.49264   1.000
    O405    O    0.26632   0.17789   0.47503   1.000
    O406    O    0.32987   0.16978   0.50650   1.000
    O407    O    0.88809   0.10635   0.47978   1.000
    O408    O    0.82317   0.06436   0.51868   1.000
    O409    O    0.20302   0.15204   0.49427   1.000
    O410    O    0.85805   0.87374   0.48803   1.000
    O411    O    0.79706   0.84696   0.50548   1.000
    O412    O    0.91798   0.84673   0.50746   1.000
    O413    O    0.14221   0.12504   0.51192   1.000
    O414    O    0.08623   0.10312   0.52411   1.000
    O415    O    0.19742   0.10400   0.52689   1.000
    O416    O    0.11189   0.89187   0.52119   1.000
    O417    O    0.04027   0.84971   0.52268   1.000
    O418    O    0.73360   0.82135   0.52467   1.000
    O419    O    0.79629   0.79328   0.54244   1.000
    O420    O    0.20019   0.86148   0.52646   1.000
    O421    O    0.17668   0.93484   0.56858   1.000
    O422    O    0.67102   0.81520   0.55808   1.000
    O423    O    0.98076   0.81953   0.52690   1.000
    O424    O    0.91720   0.79214   0.54327   1.000
    O425    O    0.48630   0.82211   0.52806   1.000
    O426    O    0.55004   0.81598   0.56003   1.000
    O427    O    0.20001   0.77661   0.52812   1.000
    O428    O    0.04026   0.78969   0.53421   1.000
    O429    O    0.42681   0.81856   0.55953   1.000
    O430    O    0.11170   0.74698   0.53438   1.000
    O431    O    0.17825   0.70304   0.57042   1.000
    O432    O    0.64509   0.17659   0.54691   1.000
    O433    O    0.39094   0.16261   0.53816   1.000
    O434    O    0.44727   0.15791   0.56274   1.000
    O435    O    0.33571   0.15742   0.56426   1.000
    O436    O    0.70994   0.22183   0.58937   1.000
    O437    O    0.70840   0.13587   0.59081   1.000
    O438    O    0.85649   0.76547   0.56080   1.000
    O439    O    0.91213   0.74345   0.57443   1.000
    O440    O    0.80060   0.74514   0.57503   1.000
    O441    O    0.78877   0.03820   0.58817   1.000
    O442    O    0.79485   0.31849   0.58811   1.000
    O443    O    0.35506   0.81729   0.60319   1.000
    O444    O    0.61091   0.80858   0.59151   1.000
    O445    O    0.66696   0.80303   0.61597   1.000
    O446    O    0.55536   0.80388   0.61763   1.000
    O447    O    0.21028   0.96215   0.63878   1.000
    O448    O    0.21303   0.67622   0.63958   1.000
    O449    O    0.74479   0.29034   0.61635   1.000
    O450    O    0.76942   0.34370   0.64281   1.000
    O451    O    0.74056   0.06768   0.61809   1.000
    O452    O    0.76371   0.01305   0.64253   1.000
    O453    O    0.29002   0.86245   0.64530   1.000
    O454    O    0.29005   0.77656   0.64677   1.000
    O455    O    0.84190   0.43036   0.64652   1.000
    O456    O    0.84197   0.93124   0.64940   1.000
    O457    O    0.25704   0.93236   0.67020   1.000
    O458    O    0.23491   0.98793   0.69366   1.000
    O459    O    0.25808   0.70746   0.67228   1.000
    O460    O    0.23701   0.65135   0.69452   1.000
    O461    O    0.79519   0.40080   0.67055   1.000
    O462    O    0.82040   0.45629   0.69575   1.000
    O463    O    0.79136   0.95745   0.67063   1.000
    O464    O    0.81884   0.90355   0.69639   1.000
    O465    O    0.73409   0.98384   0.69776   1.000
    O466    O    0.74235   0.37049   0.70091   1.000
    O467    O    0.16410   0.07625   0.69480   1.000
    O468    O    0.15664   0.57164   0.70299   1.000
    O469    O    0.21019   0.04631   0.71967   1.000
    O470    O    0.18533   0.10238   0.74393   1.000
    O471    O    0.83948   0.50560   0.72153   1.000
    O472    O    0.26229   0.01587   0.75101   1.000
    O473    O    0.83968   0.85539   0.72228   1.000
    O474    O    0.20877   0.59618   0.72288   1.000
    O475    O    0.26793   0.62064   0.74822   1.000
    O476    O    0.78910   0.87603   0.74929   1.000
    O477    O    0.79256   0.48166   0.75115   1.000
    O478    O    0.17997   0.54336   0.74966   1.000
    O479    O    0.68335   0.00441   0.72450   1.000
    O480    O    0.70447   0.95648   0.75083   1.000
    O481    O    0.69554   0.34645   0.73064   1.000
    O482    O    0.71470   0.39570   0.75645   1.000
    O483    O    0.16623   0.15197   0.76904   1.000
    O484    O    0.21245   0.12789   0.79963   1.000
    O485    O    0.32041   0.63939   0.77343   1.000
    O486    O    0.29843   0.59214   0.80020   1.000
    O487    O    0.15778   0.49634   0.77683   1.000
    O488    O    0.21018   0.51520   0.80197   1.000
    O489    O    0.73201   0.90257   0.77661   1.000
    O490    O    0.75958   0.84673   0.80442   1.000
    O491    O    0.68165   0.92893   0.79818   1.000
    O492    O    0.73970   0.45138   0.78149   1.000
    O493    O    0.76427   0.50950   0.80813   1.000
    O494    O    0.30852   0.99182   0.78157   1.000
    O495    O    0.28956   0.04149   0.80661   1.000
    O496    O    0.69289   0.42166   0.80541   1.000
    O497    O    0.78104   0.79092   0.82724   1.000
    O498    O    0.81478   0.72244   0.85323   1.000
    O499    O    0.26948   0.53952   0.82717   1.000
    O500    O    0.32196   0.56379   0.84663   1.000
    O501    O    0.23999   0.48550   0.85675   1.000
    O502    O    0.78629   0.56485   0.83228   1.000
    O503    O    0.81804   0.63589   0.85639   1.000
    O504    O    0.26458   0.09744   0.83096   1.000
    O505    O    0.23932   0.15515   0.85773   1.000
    O506    O    0.73636   0.82255   0.85996   1.000
    O507    O    0.31068   0.06771   0.85587   1.000
    O508    O    0.73837   0.53526   0.86235   1.000
    O509    O    0.08128   0.70693   0.88540   1.000
    O510    O    0.19267   0.70826   0.88711   1.000
    O511    O    0.21640   0.43119   0.88126   1.000
    O512    O    0.18303   0.36346   0.90862   1.000
    O513    O    0.21498   0.20896   0.88364   1.000
    O514    O    0.18171   0.27780   0.91043   1.000
    O515    O    0.88145   0.68415   0.89713   1.000
    O516    O    0.26366   0.46117   0.91212   1.000
    O517    O    0.26506   0.18096   0.91200   1.000
    O518    O    0.70348   0.79603   0.92960   1.000
    O519    O    0.70369   0.56281   0.93158   1.000
    O520    O    0.95310   0.68306   0.94065   1.000
    O521    O    0.13687   0.69955   0.91075   1.000
    O522    O    0.07616   0.68828   0.94110   1.000
    O523    O    0.19714   0.68913   0.94296   1.000
    O524    O    0.80910   0.35194   0.93917   1.000
    O525    O    0.92053   0.35158   0.94021   1.000
    O526    O    0.32800   0.75680   0.92921   1.000
    O527    O    0.43953   0.75710   0.92974   1.000
    O528    O    0.11851   0.32503   0.95316   1.000
    O529    O    0.38361   0.73490   0.94194   1.000
    O530    O    0.32300   0.70680   0.95862   1.000
    O531    O    0.44403   0.70661   0.95783   1.000
    O532    O    0.63844   0.75138   0.96714   1.000
    O533    O    0.56692   0.70788   0.96736   1.000
    O534    O    0.86440   0.34395   0.96427   1.000
    O535    O    0.67137   0.39860   0.97923   1.000
    O536    O    0.56002   0.39945   0.98195   1.000
    O537    O    0.01256   0.67814   0.97198   1.000
    O538    O    0.72668   0.63659   0.97358   1.000
    O539    O    0.50731   0.67797   0.97300   1.000
    O540    O    0.56676   0.64752   0.97690   1.000
    O541    O    0.25991   0.67850   0.97492   1.000
    O542    O    0.63847   0.60558   0.97816   1.000
    O543    O    0.61600   0.37682   0.99279   1.000
    O544    O    0.79311   0.68008   0.92847   1.000
    O545    O    0.72650   0.72204   0.97211   1.000
    O546    O    0.73345   0.18027   0.42833   1.000
    O547    O    0.80011   0.22231   0.47193   1.000
    O548    O    0.20678   0.31888   0.07171   1.000
    O549    O    0.20659   0.32047   0.98402   1.000
    O550    O    0.26682   0.81952   0.48413   1.000
    O551    O    0.26676   0.81889   0.57176   1.000
loop_
    _geom_bond_atom_site_label_1
    _geom_bond_atom_site_label_2
    _geom_bond_distance
    _geom_bond_site_symmetry_2
    _ccdc_geom_bond_type
    C105   O252      0.69525      .   S
    C81    O252      0.69525      .   S
    C105   O253      0.54473      .   S
    C32    O253      0.54473      .   S
    C105   O254      0.70187  1_554   S
    C128   O254      0.70187      .   S
    C81    O255      0.54436      .   S
    C16    O255      0.54436      .   S
    C81    O256      0.70364  1_554   S
    C131   O256      0.70364      .   S
    C247   O257      0.98281      .   S
    C12    O257      0.98281      .   S
    C247   O258      0.63986      .   S
    C190   O258      0.63986      .   S
    C12    O259      0.98132      .   S
    C246   O259      0.98132      .   S
    C12    O260      0.99140      .   S
    C226   O260      0.99140      .   S
    C12    O261      0.98668  1_554   S
    C236   O261      0.98668      .   S
    C191   O262      0.73810      .   S
    C193   O262      0.73810      .   S
    C191   O263      0.70337      .   S
    C175   O263      0.70337      .   S
    C191   O264      0.70357      .   S
    C141   O264      0.70357  1_556   S
    C193   O265      0.70353      .   S
    C172   O265      0.70353      .   S
    C193   O266      0.70366  1_554   S
    C173   O266      0.70366      .   S
    C188   O267      0.74466      .   S
    C190   O267      0.74466      .   S
    C188   O268      0.70159      .   S
    C174   O268      0.70159      .   S
    C188   O269      0.70210      .   S
    C163   O269      0.70210  1_556   S
    C190   O270      0.63942      .   S
    C248   O270      0.63942      .   S
    C246   O271      0.98301      .   S
    C13    O271      0.98301      .   S
    C192   O272      0.74460      .   S
    C189   O272      0.74460  1_455   S
    C192   O273      0.70141      .   S
    C171   O273      0.70141      .   S
    C192   O274      0.70189  1_554   S
    C149   O274      0.70189      .   S
    C13    O275      0.98767      .   S
    C248   O275      0.98767      .   S
    C13    O276      0.98541      .   S
    C232   O276      0.98541      .   S
    C13    O277      0.98606  1_554   S
    C242   O277      0.98606      .   S
    C189   O278      0.64024      .   S
    C230   O278      0.64024      .   S
    C189   O279      0.63929  1_554   S
    C240   O279      0.63929      .   S
    C204   O280      0.98288      .   S
    C0     O280      0.98288      .   S
    C204   O281      0.63931      .   S
    C129   O281      0.63931  1_556   S
    C113   O282      0.69498      .   S
    C91    O282      0.69498      .   S
    C113   O283      0.54444      .   S
    C37    O283      0.54444      .   S
    C113   O284      0.70200      .   S
    C132   O284      0.70200  1_556   S
    C91    O285      0.54515      .   S
    C23    O285      0.54515      .   S
    C91    O286      0.70370      .   S
    C133   O286      0.70370  1_556   S
    C174   O287      0.69511      .   S
    C175   O287      0.69511      .   S
    C174   O288      0.54458      .   S
    C70    O288      0.54458      .   S
    C175   O289      0.54538      .   S
    C71    O289      0.54538      .   S
    C0     O290      0.98815      .   S
    C208   O290      0.98815      .   S
    C0     O291      0.98744      .   S
    C202   O291      0.98744      .   S
    C0     O292      0.98487      .   S
    C220   O292      0.98487  1_556   S
    C200   O293      0.63845      .   S
    C84    O293      0.63845      .   S
    C200   O294      0.98536      .   S
    C4     O294      0.98536  1_556   S
    C206   O295      0.63894      .   S
    C92    O295      0.63894      .   S
    C206   O296      0.98623      .   S
    C5     O296      0.98623  1_556   S
    C172   O297      0.69474      .   S
    C171   O297      0.69474      .   S
    C172   O298      0.54484      .   S
    C68    O298      0.54484      .   S
    C171   O299      0.54449      .   S
    C67    O299      0.54449      .   S
    C230   O300      0.98359      .   S
    C8     O300      0.98359      .   S
    C226   O301      0.63943      .   S
    C144   O301      0.63943      .   S
    C232   O302      0.63857      .   S
    C150   O302      0.63857      .   S
    C92    O303      0.63793      .   S
    C208   O303      0.63793      .   S
    C92    O304      0.74896      .   S
    C94    O304      0.74896      .   S
    C8     O305      0.98872      .   S
    C228   O305      0.98872      .   S
    C8     O306      0.99000      .   S
    C234   O306      0.99000      .   S
    C84    O307      0.63820      .   S
    C202   O307      0.63820      .   S
    C84    O308      0.74681      .   S
    C83    O308      0.74681      .   S
    C28    O309      0.54437      .   S
    C100   O309      0.54437      .   S
    C18    O310      0.54385      .   S
    C86    O310      0.54385      .   S
    C144   O311      0.63784      .   S
    C228   O311      0.63784      .   S
    C144   O312      0.74824      .   S
    C143   O312      0.74824      .   S
    C100   O313      0.70172      .   S
    C94    O313      0.70172      .   S
    C100   O314      0.69517      .   S
    C97    O314      0.69517      .   S
    C150   O315      0.63907      .   S
    C234   O315      0.63907      .   S
    C150   O316      0.74804      .   S
    C152   O316      0.74804      .   S
    C94    O317      0.70167      .   S
    C99    O317      0.70167      .   S
    C83    O318      0.70124      .   S
    C86    O318      0.70124      .   S
    C83    O319      0.70106      .   S
    C85    O319      0.70106      .   S
    C50    O320      0.54430      .   S
    C146   O320      0.54430      .   S
    C86    O321      0.69502      .   S
    C87    O321      0.69502      .   S
    C58    O322      0.54436      .   S
    C158   O322      0.54436      .   S
    C25    O323      0.54426      .   S
    C97    O323      0.54426  1_565   S
    C146   O324      0.70171      .   S
    C143   O324      0.70171      .   S
    C146   O325      0.69547      .   S
    C147   O325      0.69547      .   S
    C97    O326      0.70163      .   S
    C95    O326      0.70163      .   S
    C143   O327      0.70172      .   S
    C145   O327      0.70172      .   S
    C158   O328      0.70221      .   S
    C152   O328      0.70221      .   S
    C158   O329      0.69517      .   S
    C155   O329      0.69517      .   S
    C152   O330      0.70095      .   S
    C157   O330      0.70095      .   S
    C17    O331      0.54433      .   S
    C85    O331      0.54433      .   S
    C85    O332      0.69516      .   S
    C88    O332      0.69516      .   S
    C87    O333      0.54434      .   S
    C19    O333      0.54434      .   S
    C87    O334      0.70122      .   S
    C82    O334      0.70122      .   S
    C99    O335      0.54434      .   S
    C27    O335      0.54434      .   S
    C99    O336      0.69561      .   S
    C98    O336      0.69561      .   S
    C51    O337      0.54427      .   S
    C147   O337      0.54427      .   S
    C147   O338      0.70176      .   S
    C142   O338      0.70176      .   S
    C55    O339      0.54430      .   S
    C155   O339      0.54430  1_545   S
    C155   O340      0.70195      .   S
    C153   O340      0.70195      .   S
    C157   O341      0.54408      .   S
    C57    O341      0.54408      .   S
    C157   O342      0.69571      .   S
    C156   O342      0.69571      .   S
    C95    O343      0.70190      .   S
    C98    O343      0.70190      .   S
    C95    O344      0.74882  1_565   S
    C96    O344      0.74882      .   S
    C88    O345      0.70175      .   S
    C82    O345      0.70175      .   S
    C88    O346      0.54430      .   S
    C20    O346      0.54430      .   S
    C82    O347      0.74667      .   S
    C80    O347      0.74667      .   S
    C145   O348      0.54432      .   S
    C49    O348      0.54432      .   S
    C145   O349      0.69535      .   S
    C148   O349      0.69535      .   S
    C98    O350      0.54406      .   S
    C26    O350      0.54406      .   S
    C203   O351      0.63926      .   S
    C80    O351      0.63926      .   S
    C203   O352      0.98760      .   S
    C1     O352      0.98760      .   S
    C207   O353      0.63765      .   S
    C96    O353      0.63765      .   S
    C207   O354      0.99046      .   S
    C1     O354      0.99046      .   S
    C142   O355      0.70150      .   S
    C148   O355      0.70150      .   S
    C142   O356      0.74866      .   S
    C140   O356      0.74866      .   S
    C153   O357      0.70135      .   S
    C156   O357      0.70135      .   S
    C153   O358      0.74809  1_545   S
    C154   O358      0.74809      .   S
    C156   O359      0.54383      .   S
    C56    O359      0.54383      .   S
    C148   O360      0.54437      .   S
    C52    O360      0.54437      .   S
    C80    O361      0.63760      .   S
    C201   O361      0.63760      .   S
    C96    O362      0.63980      .   S
    C205   O362      0.63980      .   S
    C45    O363      0.54456      .   S
    C125   O363      0.54456      .   S
    C46    O364      0.54513      .   S
    C126   O364      0.54513      .   S
    C233   O365      0.63845      .   S
    C154   O365      0.63845      .   S
    C233   O366      0.98772      .   S
    C9     O366      0.98772      .   S
    C229   O367      0.63791      .   S
    C140   O367      0.63791      .   S
    C229   O368      0.98562      .   S
    C9     O368      0.98562      .   S
    C1     O369      0.98457      .   S
    C209   O369      0.98457      .   S
    C154   O370      0.63837      .   S
    C231   O370      0.63837      .   S
    C140   O371      0.63900      .   S
    C227   O371      0.63900      .   S
    C205   O372      0.98815      .   S
    C6     O372      0.98815      .   S
    C201   O373      0.98619      .   S
    C7     O373      0.98619      .   S
    C125   O374      0.69530      .   S
    C126   O374      0.69530      .   S
    C125   O375      0.70169      .   S
    C138   O375      0.70169      .   S
    C126   O376      0.70367      .   S
    C139   O376      0.70367      .   S
    C209   O377      0.64000      .   S
    C135   O377      0.64000      .   S
    C31    O378      0.54528      .   S
    C103   O378      0.54528      .   S
    C78    O379      0.54604      .   S
    C186   O379      0.54604      .   S
    C30    O380      0.54497      .   S
    C102   O380      0.54497      .   S
    C77    O381      0.54439      .   S
    C185   O381      0.54439      .   S
    C227   O382      0.98671      .   S
    C15    O382      0.98671      .   S
    C231   O383      0.98594      .   S
    C14    O383      0.98594      .   S
    C103   O384      0.69493      .   S
    C102   O384      0.69493      .   S
    C103   O385      0.70354      .   S
    C137   O385      0.70354      .   S
    C102   O386      0.70180      .   S
    C134   O386      0.70180      .   S
    C9     O387      0.98271      .   S
    C235   O387      0.98271      .   S
    C72    O388      0.54433      .   S
    C177   O388      0.54433      .   S
    C225   O389      0.98841      .   S
    C7     O389      0.98841      .   S
    C225   O390      0.63934      .   S
    C136   O390      0.63934      .   S
    C186   O391      0.69502      .   S
    C185   O391      0.69502      .   S
    C186   O392      0.70352      .   S
    C199   O392      0.70352      .   S
    C185   O393      0.70199      .   S
    C198   O393      0.70199      .   S
    C54    O394      0.54443      .   S
    C151   O394      0.54443      .   S
    C235   O395      0.63920      .   S
    C195   O395      0.63920      .   S
    C7     O396      0.98562      .   S
    C211   O396      0.98562      .   S
    C135   O397      0.74522      .   S
    C138   O397      0.74522      .   S
    C135   O398      0.63931      .   S
    C219   O398      0.63931      .   S
    C223   O399      0.98425      .   S
    C6     O399      0.98425      .   S
    C223   O400      0.98439      .   S
    C3     O400      0.98439      .   S
    C138   O401      0.70190      .   S
    C101   O401      0.70190      .   S
    C136   O402      0.74491  1_655   S
    C134   O402      0.74491      .   S
    C136   O403      0.63957      .   S
    C224   O403      0.63957      .   S
    C134   O404      0.70155      .   S
    C93    O404      0.70155      .   S
    C139   O405      0.73832      .   S
    C137   O405      0.73832      .   S
    C139   O406      0.70352      .   S
    C127   O406      0.70352      .   S
    C6     O407      0.98449      .   S
    C224   O407      0.98449      .   S
    C6     O408      0.98570      .   S
    C215   O408      0.98570      .   S
    C137   O409      0.70274      .   S
    C117   O409      0.70274      .   S
    C177   O410      0.69516      .   S
    C151   O410      0.69516      .   S
    C177   O411      0.70273      .   S
    C197   O411      0.70273      .   S
    C151   O412      0.70190      .   S
    C194   O412      0.70190      .   S
    C93    O413      0.69519      .   S
    C117   O413      0.69519      .   S
    C93    O414      0.54471      .   S
    C24    O414      0.54471      .   S
    C117   O415      0.54434      .   S
    C40    O415      0.54434      .   S
    C250   O416      0.98334      .   S
    C14    O416      0.98334      .   S
    C250   O417      0.63962      .   S
    C196   O417      0.63962      .   S
    C197   O418      0.73817      .   S
    C199   O418      0.73817      .   S
    C197   O419      0.70341      .   S
    C161   O419      0.70341      .   S
    C14    O420      0.98173      .   S
    C249   O420      0.98173      .   S
    C14    O421      0.99162      .   S
    C241   O421      0.99162      .   S
    C199   O422      0.70371      .   S
    C187   O422      0.70371      .   S
    C194   O423      0.74468      .   S
    C196   O423      0.74468  1_455   S
    C194   O424      0.70170      .   S
    C160   O424      0.70170      .   S
    C198   O425      0.74509      .   S
    C195   O425      0.74509      .   S
    C198   O426      0.70156      .   S
    C159   O426      0.70156      .   S
    C249   O427      0.98268      .   S
    C15    O427      0.98268      .   S
    C196   O428      0.63952      .   S
    C251   O428      0.63952      .   S
    C195   O429      0.64014      .   S
    C245   O429      0.64014      .   S
    C15    O430      0.98736      .   S
    C251   O430      0.98736      .   S
    C15    O431      0.98572      .   S
    C237   O431      0.98572      .   S
    C219   O432      0.98287      .   S
    C3     O432      0.98287      .   S
    C101   O433      0.69504      .   S
    C127   O433      0.69504      .   S
    C101   O434      0.54440      .   S
    C29    O434      0.54440      .   S
    C127   O435      0.54539      .   S
    C47    O435      0.54539      .   S
    C3     O436      0.98870      .   S
    C213   O436      0.98870      .   S
    C3     O437      0.98685      .   S
    C217   O437      0.98685      .   S
    C160   O438      0.69482      .   S
    C161   O438      0.69482      .   S
    C160   O439      0.54458      .   S
    C60    O439      0.54458      .   S
    C161   O440      0.54528      .   S
    C61    O440      0.54528      .   S
    C215   O441      0.63833      .   S
    C120   O441      0.63833      .   S
    C211   O442      0.63915      .   S
    C104   O442      0.63915      .   S
    C245   O443      0.98450      .   S
    C11    O443      0.98450      .   S
    C187   O444      0.69519      .   S
    C159   O444      0.69519      .   S
    C187   O445      0.54504      .   S
    C79    O445      0.54504      .   S
    C159   O446      0.54456      .   S
    C59    O446      0.54456      .   S
    C241   O447      0.63972      .   S
    C180   O447      0.63972      .   S
    C237   O448      0.63823      .   S
    C162   O448      0.63823      .   S
    C104   O449      0.63773      .   S
    C213   O449      0.63773      .   S
    C104   O450      0.74878      .   S
    C106   O450      0.74878      .   S
    C120   O451      0.63862      .   S
    C217   O451      0.63862      .   S
    C120   O452      0.74747      .   S
    C119   O452      0.74747  1_565   S
    C11    O453      0.98988      .   S
    C243   O453      0.98988      .   S
    C11    O454      0.98787      .   S
    C239   O454      0.98787      .   S
    C36    O455      0.54437      .   S
    C112   O455      0.54437      .   S
    C42    O456      0.54376      .   S
    C122   O456      0.54376      .   S
    C180   O457      0.63793      .   S
    C243   O457      0.63793      .   S
    C180   O458      0.74870      .   S
    C179   O458      0.74870  1_545   S
    C162   O459      0.63913      .   S
    C239   O459      0.63913      .   S
    C162   O460      0.74697      .   S
    C164   O460      0.74697      .   S
    C112   O461      0.70159      .   S
    C106   O461      0.70159      .   S
    C112   O462      0.69529      .   S
    C109   O462      0.69529      .   S
    C122   O463      0.70130      .   S
    C119   O463      0.70130      .   S
    C122   O464      0.69504      .   S
    C123   O464      0.69504      .   S
    C119   O465      0.70157      .   S
    C121   O465      0.70157      .   S
    C106   O466      0.70167      .   S
    C111   O466      0.70167      .   S
    C74    O467      0.54406      .   S
    C182   O467      0.54406      .   S
    C66    O468      0.54435      .   S
    C170   O468      0.54435      .   S
    C182   O469      0.70187      .   S
    C179   O469      0.70187      .   S
    C182   O470      0.69572      .   S
    C183   O470      0.69572      .   S
    C33    O471      0.54433      .   S
    C109   O471      0.54433      .   S
    C179   O472      0.70175      .   S
    C181   O472      0.70175      .   S
    C43    O473      0.54408      .   S
    C123   O473      0.54408      .   S
    C164   O474      0.70176      .   S
    C170   O474      0.70176      .   S
    C164   O475      0.70128      .   S
    C169   O475      0.70128      .   S
    C123   O476      0.70115      .   S
    C118   O476      0.70115      .   S
    C109   O477      0.70186      .   S
    C107   O477      0.70186      .   S
    C170   O478      0.69490      .   S
    C167   O478      0.69490      .   S
    C41    O479      0.54427      .   S
    C121   O479      0.54427  1_565   S
    C121   O480      0.69521      .   S
    C124   O480      0.69521      .   S
    C111   O481      0.54431      .   S
    C35    O481      0.54431      .   S
    C111   O482      0.69547      .   S
    C110   O482      0.69547      .   S
    C75    O483      0.54434      .   S
    C183   O483      0.54434      .   S
    C183   O484      0.70170      .   S
    C178   O484      0.70170      .   S
    C65    O485      0.54434      .   S
    C169   O485      0.54434      .   S
    C169   O486      0.69511      .   S
    C168   O486      0.69511      .   S
    C167   O487      0.54433      .   S
    C63    O487      0.54433      .   S
    C167   O488      0.70150      .   S
    C165   O488      0.70150      .   S
    C118   O489      0.70208      .   S
    C124   O489      0.70208      .   S
    C118   O490      0.74708      .   S
    C116   O490      0.74708      .   S
    C124   O491      0.54436      .   S
    C44    O491      0.54436      .   S
    C107   O492      0.70190      .   S
    C110   O492      0.70190      .   S
    C107   O493      0.74848      .   S
    C108   O493      0.74848      .   S
    C181   O494      0.54429  1_545   S
    C73    O494      0.54429      .   S
    C181   O495      0.69555      .   S
    C184   O495      0.69555      .   S
    C110   O496      0.54423      .   S
    C34    O496      0.54423      .   S
    C218   O497      0.63922      .   S
    C116   O497      0.63922      .   S
    C218   O498      0.98711      .   S
    C2     O498      0.98711      .   S
    C168   O499      0.70120      .   S
    C165   O499      0.70120      .   S
    C168   O500      0.54381      .   S
    C64    O500      0.54381      .   S
    C165   O501      0.74700      .   S
    C166   O501      0.74700      .   S
    C212   O502      0.63795      .   S
    C108   O502      0.63795      .   S
    C212   O503      0.99162      .   S
    C2     O503      0.99162      .   S
    C178   O504      0.70177      .   S
    C184   O504      0.70177      .   S
    C178   O505      0.74926      .   S
    C176   O505      0.74926      .   S
    C116   O506      0.63846      .   S
    C216   O506      0.63846      .   S
    C184   O507      0.54431      .   S
    C76    O507      0.54431      .   S
    C108   O508      0.63978      .   S
    C210   O508      0.63978      .   S
    C21    O509      0.54450      .   S
    C89    O509      0.54450      .   S
    C22    O510      0.54460      .   S
    C90    O510      0.54460      .   S
    C238   O511      0.63825      .   S
    C166   O511      0.63825      .   S
    C238   O512      0.98684      .   S
    C10    O512      0.98684      .   S
    C244   O513      0.63805      .   S
    C176   O513      0.63805      .   S
    C244   O514      0.98852      .   S
    C10    O514      0.98852      .   S
    C2     O515      0.98446      .   S
    C214   O515      0.98446      .   S
    C166   O516      0.63848      .   S
    C236   O516      0.63848      .   S
    C176   O517      0.63890      .   S
    C242   O517      0.63890      .   S
    C216   O518      0.98516      .   S
    C5     O518      0.98516      .   S
    C210   O519      0.99072      .   S
    C4     O519      0.99072      .   S
    C214   O520      0.64035      .   S
    C129   O520      0.64035      .   S
    C89    O521      0.69477      .   S
    C90    O521      0.69477      .   S
    C89    O522      0.70142      .   S
    C132   O522      0.70142      .   S
    C90    O523      0.70389      .   S
    C133   O523      0.70389      .   S
    C69    O524      0.54508      .   S
    C173   O524      0.54508      .   S
    C53    O525      0.54450      .   S
    C149   O525      0.54450      .   S
    C39    O526      0.54515      .   S
    C115   O526      0.54515      .   S
    C38    O527      0.54459      .   S
    C114   O527      0.54459      .   S
    C10    O528      0.98263      .   S
    C240   O528      0.98263      .   S
    C115   O529      0.69506      .   S
    C114   O529      0.69506      .   S
    C115   O530      0.70367      .   S
    C131   O530      0.70367      .   S
    C114   O531      0.70167      .   S
    C128   O531      0.70167      .   S
    C222   O532      0.98789      .   S
    C5     O532      0.98789      .   S
    C222   O533      0.63925      .   S
    C130   O533      0.63925      .   S
    C173   O534      0.69494      .   S
    C149   O534      0.69494      .   S
    C48    O535      0.54437      .   S
    C141   O535      0.54437      .   S
    C62    O536      0.54457      .   S
    C163   O536      0.54457      .   S
    C129   O537      0.74472  1_655   S
    C132   O537      0.74472      .   S
    C220   O538      0.98252      .   S
    C4     O538      0.98252      .   S
    C130   O539      0.74483      .   S
    C128   O539      0.74483      .   S
    C130   O540      0.63977      .   S
    C221   O540      0.63977      .   S
    C133   O541      0.73818      .   S
    C131   O541      0.73818      .   S
    C4     O542      0.98391      .   S
    C221   O542      0.98391      .   S
    C141   O543      0.69517      .   S
    C163   O543      0.69517      .   S
    C220   O544      0.98514      .   S
    C2     O544      0.98514      .   S
    C220   O545      0.98535      .   S
    C5     O545      0.98535      .   S
    C223   O546      0.98448      .   S
    C1     O546      0.98448      .   S
    C223   O547      0.98523      .   S
    C7     O547      0.98523      .   S
    C246   O548      0.98471      .   S
    C8     O548      0.98471      .   S
    C246   O549      0.98456  1_554   S
    C10    O549      0.98456      .   S
    C249   O550      0.98439      .   S
    C9     O550      0.98439      .   S
    C249   O551      0.98389      .   S
    C11    O551      0.98389      .   S
