# CIF file generated by openbabel 2.4.90, see http://openbabel.sf.net
data_I
_chemical_name_common ''
_cell_length_a 13.728
_cell_length_b 14.03
_cell_length_c 16.134
_cell_angle_alpha 89.995
_cell_angle_beta 89.988
_cell_angle_gamma 90.083
_space_group_name_H-M_alt 'P 1'
_space_group_name_Hall 'P 1'
loop_
    _symmetry_equiv_pos_as_xyz
    x,y,z
loop_
    _atom_site_label
    _atom_site_type_symbol
    _atom_site_fract_x
    _atom_site_fract_y
    _atom_site_fract_z
    _atom_site_occupancy
    H0      H    0.28533   0.96656   0.81508   1.000
    H1      H    0.78533   0.96656   0.81500   1.000
    H2      H    0.27434   0.08229   0.69665   1.000
    H3      H    0.77433   0.08230   0.69665   1.000
    H4      H    0.47534   0.92512   0.80569   1.000
    H5      H    0.97534   0.92498   0.80557   1.000
    H6      H    0.46434   0.04086   0.68726   1.000
    H7      H    0.96435   0.04072   0.68715   1.000
    H8      H    0.46469   0.03336   0.31517   1.000
    H9      H    0.96469   0.03338   0.31517   1.000
    H10     H    0.47562   0.91764   0.19670   1.000
    H11     H    0.97561   0.91765   0.19675   1.000
    H12     H    0.27469   0.07488   0.30550   1.000
    H13     H    0.77467   0.07479   0.30558   1.000
    H14     H    0.28562   0.95915   0.18708   1.000
    H15     H    0.78561   0.95907   0.18715   1.000
    H16     H    0.21497   0.46606   0.68111   1.000
    H17     H    0.71497   0.46611   0.68106   1.000
    H18     H    0.22547   0.58186   0.79952   1.000
    H19     H    0.72547   0.58190   0.79948   1.000
    H20     H    0.02493   0.42549   0.69136   1.000
    H21     H    0.52492   0.42550   0.69136   1.000
    H22     H    0.03543   0.54129   0.80976   1.000
    H23     H    0.53542   0.54131   0.80970   1.000
    H24     H    0.03501   0.53396   0.18107   1.000
    H25     H    0.53497   0.53386   0.18098   1.000
    H26     H    0.02456   0.41813   0.29948   1.000
    H27     H    0.52453   0.41803   0.29940   1.000
    H28     H    0.22505   0.57450   0.19150   1.000
    H29     H    0.72502   0.57439   0.19143   1.000
    H30     H    0.21460   0.45865   0.30990   1.000
    H31     H    0.71457   0.45854   0.30983   1.000
    C32     C    0.13738   0.86914   0.88601   1.000
    C33     C    0.63737   0.86917   0.88603   1.000
    C34     C    0.13096   0.93893   0.81685   1.000
    C35     C    0.63095   0.93899   0.81690   1.000
    C36     C    0.21557   0.98323   0.78649   1.000
    C37     C    0.71556   0.98326   0.78651   1.000
    C38     C    0.20953   0.04734   0.72105   1.000
    C39     C    0.70952   0.04738   0.72107   1.000
    C40     C    0.04016   0.95999   0.78122   1.000
    C41     C    0.54014   0.96010   0.78130   1.000
    C42     C    0.03413   0.02409   0.71570   1.000
    C43     C    0.53410   0.02420   0.71586   1.000
    C44     C    0.11879   0.06802   0.68513   1.000
    C45     C    0.61877   0.06808   0.68518   1.000
    C46     C    0.11253   0.13608   0.61467   1.000
    C47     C    0.61251   0.13611   0.61469   1.000
    C48     C    0.11268   0.13078   0.38601   1.000
    C49     C    0.61265   0.13076   0.38600   1.000
    C50     C    0.11909   0.06098   0.31686   1.000
    C51     C    0.61907   0.06093   0.31689   1.000
    C52     C    0.03447   0.01669   0.28655   1.000
    C53     C    0.53444   0.01666   0.28656   1.000
    C54     C    0.04047   0.95258   0.22110   1.000
    C55     C    0.54045   0.95255   0.22112   1.000
    C56     C    0.20987   0.03989   0.28118   1.000
    C57     C    0.70986   0.03982   0.28124   1.000
    C58     C    0.21588   0.97579   0.21574   1.000
    C59     C    0.71587   0.97572   0.21580   1.000
    C60     C    0.13119   0.93189   0.18514   1.000
    C61     C    0.63118   0.93184   0.18517   1.000
    C62     C    0.13744   0.86384   0.11467   1.000
    C63     C    0.63743   0.86382   0.11468   1.000
    C64     C    0.36300   0.36912   0.61056   1.000
    C65     C    0.86299   0.36912   0.61050   1.000
    C66     C    0.36933   0.43894   0.67970   1.000
    C67     C    0.86932   0.43896   0.67960   1.000
    C68     C    0.28462   0.48300   0.70986   1.000
    C69     C    0.78461   0.48303   0.70983   1.000
    C70     C    0.29039   0.54712   0.77530   1.000
    C71     C    0.79039   0.54716   0.77527   1.000
    C72     C    0.46001   0.46029   0.71553   1.000
    C73     C    0.96000   0.46029   0.71552   1.000
    C74     C    0.46578   0.52443   0.78096   1.000
    C75     C    0.96577   0.52442   0.78090   1.000
    C76     C    0.38101   0.56809   0.81141   1.000
    C77     C    0.88100   0.56810   0.81139   1.000
    C78     C    0.38717   0.63616   0.88188   1.000
    C79     C    0.88716   0.63616   0.88187   1.000
    C80     C    0.38694   0.63083   0.11057   1.000
    C81     C    0.88693   0.63083   0.11057   1.000
    C82     C    0.38062   0.56101   0.17972   1.000
    C83     C    0.88061   0.56101   0.17970   1.000
    C84     C    0.46535   0.51694   0.20980   1.000
    C85     C    0.96535   0.51699   0.20985   1.000
    C86     C    0.45961   0.45279   0.27524   1.000
    C87     C    0.95961   0.45284   0.27529   1.000
    C88     C    0.28996   0.53968   0.21560   1.000
    C89     C    0.78994   0.53962   0.21558   1.000
    C90     C    0.28421   0.47553   0.28100   1.000
    C91     C    0.78419   0.47547   0.28100   1.000
    C92     C    0.36900   0.43184   0.31142   1.000
    C93     C    0.86899   0.43183   0.31142   1.000
    C94     C    0.36287   0.36377   0.38189   1.000
    C95     C    0.86285   0.36375   0.38188   1.000
    O96     O    0.10758   0.30685   0.49707   1.000
    O97     O    0.60756   0.30685   0.49707   1.000
    O98     O    0.19269   0.17082   0.58752   1.000
    O99     O    0.69267   0.17083   0.58753   1.000
    O100    O    0.22206   0.84923   0.91374   1.000
    O101    O    0.72205   0.84923   0.91375   1.000
    O102    O    0.02793   0.15504   0.58630   1.000
    O103    O    0.52791   0.15506   0.58631   1.000
    O104    O    0.05727   0.83360   0.91246   1.000
    O105    O    0.55727   0.83361   0.91247   1.000
    O106    O    0.14243   0.69306   0.99707   1.000
    O107    O    0.64241   0.69306   0.99707   1.000
    O108    O    0.05729   0.82913   0.08752   1.000
    O109    O    0.55728   0.82912   0.08753   1.000
    O110    O    0.02800   0.15071   0.41375   1.000
    O111    O    0.52797   0.15071   0.41370   1.000
    O112    O    0.22205   0.84488   0.08628   1.000
    O113    O    0.72204   0.84487   0.08628   1.000
    O114    O    0.19278   0.16633   0.41244   1.000
    O115    O    0.69275   0.16631   0.41245   1.000
    O116    O    0.39254   0.80683   0.99949   1.000
    O117    O    0.89253   0.80682   0.99950   1.000
    O118    O    0.30705   0.67079   0.90899   1.000
    O119    O    0.80704   0.67079   0.90898   1.000
    O120    O    0.27831   0.34916   0.58274   1.000
    O121    O    0.77830   0.34916   0.58273   1.000
    O122    O    0.47179   0.65520   0.91030   1.000
    O123    O    0.97177   0.65519   0.91031   1.000
    O124    O    0.44307   0.33361   0.58421   1.000
    O125    O    0.94305   0.33361   0.58421   1.000
    O126    O    0.35746   0.19307   0.49951   1.000
    O127    O    0.85745   0.19306   0.49951   1.000
    O128    O    0.44298   0.32916   0.40898   1.000
    O129    O    0.94297   0.32915   0.40899   1.000
    O130    O    0.47163   0.65079   0.08273   1.000
    O131    O    0.97162   0.65079   0.08274   1.000
    O132    O    0.27824   0.34471   0.41032   1.000
    O133    O    0.77823   0.34468   0.41031   1.000
    O134    O    0.30688   0.66634   0.08424   1.000
    O135    O    0.80686   0.66633   0.08424   1.000
loop_
    _geom_bond_atom_site_label_1
    _geom_bond_atom_site_label_2
    _geom_bond_distance
    _geom_bond_site_symmetry_2
    _ccdc_geom_bond_type
    O130   C80       1.27702      .   S
    O131   C81       1.27700      .   S
    O135   C81       1.27995      .   S
    O134   C80       1.28000      .   S
    O112   C62       1.27684      .   S
    O113   C63       1.27688      .   S
    O108   C62       1.28003      .   S
    O109   C63       1.27997      .   S
    C81    C83       1.48685      .   S
    C80    C82       1.48711      .   S
    C62    C60       1.48723      .   S
    C63    C61       1.48729      .   S
    C83    C85       1.40477      .   S
    C83    C89       1.40473      .   S
    C82    C84       1.40461      .   S
    C82    C88       1.40445      .   S
    H25    C84       1.08875      .   S
    H24    C85       1.08904  1_455   S
    C60    C58       1.40458      .   S
    C60    C54       1.40459      .   S
    C61    C59       1.40460      .   S
    C61    C55       1.40463      .   S
    H14    C58       1.08874      .   S
    H15    C59       1.08879      .   S
    H29    C89       1.08880      .   S
    H28    C88       1.08868      .   S
    H10    C55       1.08910      .   S
    H11    C54       1.08908  1_655   S
    C84    C86       1.38942      .   S
    C85    C87       1.38945      .   S
    C89    C91       1.38923      .   S
    C88    C90       1.38895      .   S
    C58    C56       1.38950  1_565   S
    C59    C57       1.38950  1_565   S
    C54    C52       1.38967  1_565   S
    C55    C53       1.38955  1_565   S
    C86    H27       1.08880      .   S
    C86    C92       1.40453      .   S
    C87    H26       1.08908  1_655   S
    C87    C93       1.40450      .   S
    C91    H31       1.08877      .   S
    C91    C93       1.40468      .   S
    C90    H30       1.08902      .   S
    C90    C92       1.40490      .   S
    C56    H12       1.08880      .   S
    C56    C50       1.40462      .   S
    C57    H13       1.08881      .   S
    C57    C51       1.40459      .   S
    C52    H9        1.08907  1_455   S
    C52    C50       1.40461      .   S
    C53    H8        1.08881      .   S
    C53    C51       1.40465      .   S
    C92    C94       1.48709      .   S
    C93    C95       1.48701      .   S
    C50    C48       1.48730      .   S
    C51    C49       1.48699      .   S
    C95    O129      1.27996      .   S
    C95    O133      1.27690      .   S
    C94    O128      1.27992      .   S
    C94    O132      1.27685      .   S
    C49    O115      1.28015      .   S
    C49    O111      1.27681      .   S
    C48    O114      1.28002      .   S
    C48    O110      1.27696      .   S
    O121   C65       1.27675      .   S
    O120   C64       1.27705      .   S
    O125   C65       1.27974      .   S
    O124   C64       1.28000      .   S
    O102   C46       1.27681      .   S
    O103   C47       1.27681      .   S
    O98    C46       1.28001      .   S
    O99    C47       1.28000      .   S
    C65    C67       1.48674      .   S
    C64    C66       1.48714      .   S
    C46    C44       1.48715      .   S
    C47    C45       1.48723      .   S
    C67    C69       1.40512      .   S
    C67    C73       1.40511      .   S
    C66    C68       1.40465      .   S
    C66    C72       1.40459      .   S
    H17    C69       1.08877      .   S
    H16    C68       1.08871      .   S
    C44    C42       1.40418      .   S
    C44    C38       1.40465      .   S
    C45    C43       1.40457      .   S
    C45    C39       1.40462      .   S
    H7     C42       1.08851  1_655   S
    H6     C43       1.08873      .   S
    H20    C73       1.08906  1_455   S
    H21    C72       1.08878      .   S
    H3     C39       1.08881      .   S
    H2     C38       1.08883      .   S
    C69    C71       1.38943      .   S
    C68    C70       1.38944      .   S
    C73    C75       1.38871      .   S
    C72    C74       1.38934      .   S
    C42    C40       1.39048  1_545   S
    C43    C41       1.38949  1_545   S
    C38    C36       1.38952  1_545   S
    C39    C37       1.38953  1_545   S
    C71    H19       1.08884      .   S
    C71    C77       1.40452      .   S
    C70    H18       1.08883      .   S
    C70    C76       1.40459      .   S
    C75    H22       1.08942  1_655   S
    C75    C77       1.40494      .   S
    C74    H23       1.08835      .   S
    C74    C76       1.40465      .   S
    C40    H5        1.08905  1_455   S
    C40    C34       1.40455      .   S
    C41    H4        1.08882      .   S
    C41    C35       1.40462      .   S
    C36    H0        1.08877      .   S
    C36    C34       1.40462      .   S
    C37    H1        1.08827      .   S
    C37    C35       1.40464      .   S
    C77    C79       1.48725      .   S
    C76    C78       1.48721      .   S
    C34    C32       1.48716      .   S
    C35    C33       1.48711      .   S
    C79    O119      1.27998      .   S
    C79    O123      1.27693      .   S
    C78    O118      1.27996      .   S
    C78    O122      1.27687      .   S
    C32    O104      1.27998      .   S
    C32    O100      1.27697      .   S
    C33    O105      1.27998      .   S
    C33    O101      1.27699      .   S
