# CIF file generated by openbabel 2.4.90, see http://openbabel.sf.net
data_I
_chemical_name_common ''
_cell_length_a 13.728
_cell_length_b 14.03
_cell_length_c 16.134
_cell_angle_alpha 89.995
_cell_angle_beta 89.988
_cell_angle_gamma 90.083
_space_group_name_H-M_alt 'P 1'
_space_group_name_Hall 'P 1'
loop_
    _symmetry_equiv_pos_as_xyz
    x,y,z
loop_
    _atom_site_label
    _atom_site_type_symbol
    _atom_site_fract_x
    _atom_site_fract_y
    _atom_site_fract_z
    _atom_site_occupancy
    Zr0     Zr   0.21816   0.26453   0.49810   1.000
    Zr1     Zr   0.71815   0.26452   0.49811   1.000
    Zr2     Zr   0.03184   0.73539   0.99812   1.000
    Zr3     Zr   0.53183   0.73540   0.99811   1.000
    Zr4     Zr   0.28183   0.76454   0.99840   1.000
    Zr5     Zr   0.78181   0.76453   0.99845   1.000
    Zr6     Zr   0.46817   0.23539   0.49846   1.000
    Zr7     Zr   0.96816   0.23538   0.49846   1.000
    N8      N    0.87483   0.49677   0.24584   1.000
    O9      O    0.81151   0.40069   0.35002   1.000
    O10     O    0.83459   0.60610   0.14359   1.000
    O11     O    0.93828   0.59493   0.14313   1.000
    O12     O    0.91520   0.38952   0.34978   1.000
    N13     N    0.62510   0.99675   0.25075   1.000
    O14     O    0.68851   0.90072   0.14656   1.000
    O15     O    0.66528   0.10608   0.35302   1.000
    O16     O    0.56158   0.09490   0.35342   1.000
    O17     O    0.58483   0.88950   0.14679   1.000
    N18     N    0.37484   0.49678   0.24583   1.000
    O19     O    0.33460   0.60611   0.14358   1.000
    O20     O    0.41521   0.38952   0.34978   1.000
    O21     O    0.43829   0.59494   0.14313   1.000
    O22     O    0.31152   0.40070   0.35002   1.000
    N23     N    0.37514   0.50317   0.74582   1.000
    O24     O    0.43848   0.59923   0.85001   1.000
    O25     O    0.33479   0.61041   0.84976   1.000
    O26     O    0.31169   0.40500   0.64312   1.000
    O27     O    0.41538   0.39383   0.64358   1.000
    N28     N    0.87514   0.50317   0.74580   1.000
    O29     O    0.91537   0.39383   0.64357   1.000
    O30     O    0.81168   0.40501   0.64311   1.000
    O31     O    0.93847   0.59923   0.85001   1.000
    O32     O    0.83478   0.61042   0.84976   1.000
    N33     N    0.12511   0.99679   0.25073   1.000
    O34     O    0.08484   0.88952   0.14678   1.000
    O35     O    0.16529   0.10611   0.35300   1.000
    O36     O    0.18852   0.90075   0.14654   1.000
    O37     O    0.06160   0.09492   0.35342   1.000
    N38     N    0.62489   0.00318   0.75076   1.000
    O39     O    0.66515   0.11043   0.64679   1.000
    O40     O    0.58472   0.89384   0.85303   1.000
    O41     O    0.56146   0.09920   0.64657   1.000
    O42     O    0.68841   0.90503   0.85343   1.000
    N43     N    0.12490   0.00313   0.75072   1.000
    O44     O    0.18842   0.90501   0.85340   1.000
    O45     O    0.06147   0.09917   0.64655   1.000
    O46     O    0.08473   0.89381   0.85301   1.000
    O47     O    0.16516   0.11040   0.64677   1.000
    N48     N    0.60756   0.30685   0.49707   1.000
    O49     O    0.63521   0.29627   0.49733   1.000
    O50     O    0.57271   0.28898   0.49742   1.000
    N51     N    0.14243   0.69306   0.99707   1.000
    O52     O    0.11478   0.70364   0.99733   1.000
    O53     O    0.17728   0.71093   0.99740   1.000
    N54     N    0.35746   0.19307   0.49951   1.000
    O55     O    0.32264   0.21094   0.49916   1.000
    O56     O    0.38514   0.20365   0.49925   1.000
    N57     N    0.85745   0.19306   0.49951   1.000
    O58     O    0.82263   0.21093   0.49916   1.000
    O59     O    0.88513   0.20364   0.49925   1.000
    N60     N    0.10758   0.30685   0.49707   1.000
    O61     O    0.07272   0.28898   0.49742   1.000
    O62     O    0.13522   0.29627   0.49733   1.000
    N63     N    0.89253   0.80682   0.99950   1.000
    O64     O    0.92736   0.78896   0.99915   1.000
    O65     O    0.86485   0.79625   0.99924   1.000
    N66     N    0.39254   0.80683   0.99949   1.000
    O67     O    0.42736   0.78897   0.99914   1.000
    O68     O    0.36486   0.79626   0.99922   1.000
    N69     N    0.64241   0.69306   0.99707   1.000
    O70     O    0.61477   0.70364   0.99733   1.000
    O71     O    0.67726   0.71093   0.99742   1.000
loop_
    _geom_bond_atom_site_label_1
    _geom_bond_atom_site_label_2
    _geom_bond_distance
    _geom_bond_site_symmetry_2
    _ccdc_geom_bond_type
    N8     O9        2.32252      .   S
    Zr1    O9        3.31536      .   S
    N8     O10       2.31987      .   S
    Zr5    O10       3.30964  1_556   S
    N8     O11       2.32307      .   S
    Zr2    O11       3.31629  1_456   S
    N8     O12       2.32080      .   S
    Zr7    O12       3.31117      .   S
    N13    O14       2.32421      .   S
    Zr5    O14       3.31788  1_556   S
    N13    O15       2.31903  1_565   S
    Zr1    O15       3.30832      .   S
    N13    O16       2.32452  1_565   S
    Zr6    O16       3.31857      .   S
    N13    O17       2.31984      .   S
    Zr3    O17       3.30983  1_556   S
    N18    O19       2.31999      .   S
    Zr4    O19       3.31002  1_556   S
    N18    O20       2.32082      .   S
    Zr6    O20       3.31121      .   S
    N18    O21       2.32305      .   S
    Zr3    O21       3.31624  1_556   S
    N18    O22       2.32249      .   S
    Zr0    O22       3.31530      .   S
    N23    O24       2.32293      .   S
    Zr3    O24       3.31607      .   S
    N23    O25       2.32068      .   S
    Zr4    O25       3.31068      .   S
    N23    O26       2.32348      .   S
    Zr0    O26       3.31694      .   S
    N23    O27       2.31985      .   S
    Zr6    O27       3.30961      .   S
    N28    O29       2.31978      .   S
    Zr7    O29       3.30955      .   S
    N28    O30       2.32340      .   S
    Zr1    O30       3.31682      .   S
    N28    O31       2.32307      .   S
    Zr2    O31       3.31631  1_455   S
    N28    O32       2.32089      .   S
    Zr5    O32       3.31120      .   S
    N33    O34       2.31990      .   S
    Zr2    O34       3.30983  1_556   S
    N33    O35       2.31897  1_565   S
    Zr0    O35       3.30820      .   S
    N33    O36       2.32435      .   S
    Zr4    O36       3.31835  1_556   S
    N33    O37       2.32462  1_565   S
    Zr7    O37       3.31842  1_655   S
    N38    O39       2.31954      .   S
    Zr1    O39       3.30931      .   S
    N38    O40       2.31866  1_545   S
    Zr3    O40       3.30782      .   S
    N38    O41       2.32428      .   S
    Zr6    O41       3.31802      .   S
    N38    O42       2.32469  1_545   S
    Zr5    O42       3.31843      .   S
    N43    O44       2.32452  1_545   S
    Zr4    O44       3.31798      .   S
    N43    O45       2.32426      .   S
    Zr7    O45       3.31805  1_655   S
    N43    O46       2.31870  1_545   S
    Zr2    O46       3.30792      .   S
    N43    O47       2.31960      .   S
    Zr0    O47       3.30944      .   S
    N48    O49       0.40776      .   S
    Zr1    O49       1.22327      .   S
    N48    O50       0.53979      .   S
    Zr6    O50       1.61936      .   S
    N51    O52       0.40776      .   S
    Zr2    O52       1.22329      .   S
    N51    O53       0.53985      .   S
    Zr4    O53       1.61954      .   S
    N54    O55       0.54014      .   S
    Zr0    O55       1.62043      .   S
    N54    O56       0.40773      .   S
    Zr6    O56       1.22318      .   S
    N57    O58       0.54017      .   S
    Zr1    O58       1.62050      .   S
    N57    O59       0.40772      .   S
    Zr7    O59       1.22317      .   S
    N60    O61       0.53988      .   S
    Zr7    O61       1.61965  1_655   S
    N60    O62       0.40776      .   S
    Zr0    O62       1.22327      .   S
    N63    O64       0.54013      .   S
    Zr2    O64       1.62039  1_455   S
    N63    O65       0.40772      .   S
    Zr5    O65       1.22315      .   S
    N66    O67       0.54007      .   S
    Zr3    O67       1.62022      .   S
    N66    O68       0.40772      .   S
    Zr4    O68       1.22316      .   S
    N69    O70       0.40776      .   S
    Zr3    O70       1.22329      .   S
    N69    O71       0.53983      .   S
    Zr5    O71       1.61950      .   S
