# CIF file generated by openbabel 2.4.90, see http://openbabel.sf.net
data_I
_chemical_name_common ''
_cell_length_a 22.522
_cell_length_b 16.308
_cell_length_c 14.511
_cell_angle_alpha 89.989
_cell_angle_beta 95.208
_cell_angle_gamma 89.979
_space_group_name_H-M_alt 'P 1'
_space_group_name_Hall 'P 1'
loop_
    _symmetry_equiv_pos_as_xyz
    x,y,z
loop_
    _atom_site_label
    _atom_site_type_symbol
    _atom_site_fract_x
    _atom_site_fract_y
    _atom_site_fract_z
    _atom_site_occupancy
    C0      C    0.24807   0.83782   0.08376   1.000
    C1      C    0.74807   0.83786   0.08385   1.000
    C2      C    0.36311   0.93619   0.08425   1.000
    C3      C    0.86311   0.93620   0.08428   1.000
    C4      C    0.50195   0.33764   0.91664   1.000
    C5      C    0.00000   0.33763   0.91667   1.000
    C6      C    0.38688   0.43616   0.91572   1.000
    C7      C    0.88688   0.43615   0.91572   1.000
    C8      C    0.25191   0.16217   0.91609   1.000
    C9      C    0.75191   0.16220   0.91618   1.000
    C10     C    0.13687   0.06381   0.91560   1.000
    C11     C    0.63686   0.06382   0.91568   1.000
    C12     C    0.99802   0.66239   0.08326   1.000
    C13     C    0.49802   0.66238   0.08329   1.000
    C14     C    0.11309   0.56386   0.08422   1.000
    C15     C    0.61309   0.56386   0.08422   1.000
