# CIF file generated by openbabel 2.4.90, see http://openbabel.sf.net
data_I
_chemical_name_common ''
_cell_length_a 22.522
_cell_length_b 16.308
_cell_length_c 14.511
_cell_angle_alpha 89.989
_cell_angle_beta 95.208
_cell_angle_gamma 89.979
_space_group_name_H-M_alt 'P 1'
_space_group_name_Hall 'P 1'
loop_
    _symmetry_equiv_pos_as_xyz
    x,y,z
loop_
    _atom_site_label
    _atom_site_type_symbol
    _atom_site_fract_x
    _atom_site_fract_y
    _atom_site_fract_z
    _atom_site_occupancy
    Zr0     Zr   0.20010   0.68386   0.11363   1.000
    Zr1     Zr   0.70009   0.68385   0.11360   1.000
    Zr2     Zr   0.04981   0.18386   0.88637   1.000
    Zr3     Zr   0.54981   0.18386   0.88637   1.000
    Zr4     Zr   0.29989   0.31616   0.88630   1.000
    Zr5     Zr   0.79988   0.31616   0.88632   1.000
    Zr6     Zr   0.45017   0.81615   0.11358   1.000
    Zr7     Zr   0.95017   0.81615   0.11357   1.000
    Zr8     Zr   0.24807   0.83782   0.08376   1.000
    Zr9     Zr   0.74807   0.83786   0.08385   1.000
    Zr10    Zr   0.36311   0.93619   0.08425   1.000
    Zr11    Zr   0.86311   0.93620   0.08428   1.000
    Zr12    Zr   0.50195   0.33764   0.91664   1.000
    Zr13    Zr   0.00000   0.33763   0.91667   1.000
    Zr14    Zr   0.38688   0.43616   0.91572   1.000
    Zr15    Zr   0.88688   0.43615   0.91572   1.000
    Zr16    Zr   0.25191   0.16217   0.91609   1.000
    Zr17    Zr   0.75191   0.16220   0.91618   1.000
    Zr18    Zr   0.13687   0.06381   0.91560   1.000
    Zr19    Zr   0.63686   0.06382   0.91568   1.000
    Zr20    Zr   0.99802   0.66239   0.08326   1.000
    Zr21    Zr   0.49802   0.66238   0.08329   1.000
    Zr22    Zr   0.11309   0.56386   0.08422   1.000
    Zr23    Zr   0.61309   0.56386   0.08422   1.000
    Zr24    Zr   0.21282   0.78396   0.04192   1.000
    Zr25    Zr   0.71284   0.78398   0.04201   1.000
    Zr26    Zr   0.27628   0.82751   0.16143   1.000
    Zr27    Zr   0.77627   0.82759   0.16153   1.000
    Zr28    Zr   0.37962   0.86811   0.04728   1.000
    Zr29    Zr   0.87960   0.86812   0.04731   1.000
    Zr30    Zr   0.39368   0.97607   0.14500   1.000
    Zr31    Zr   0.89370   0.97608   0.14501   1.000
    Zr32    Zr   0.03724   0.28380   0.95859   1.000
    Zr33    Zr   0.53723   0.28380   0.95855   1.000
    Zr34    Zr   0.47376   0.32723   0.83897   1.000
    Zr35    Zr   0.97376   0.32720   0.83900   1.000
    Zr36    Zr   0.37037   0.36810   0.95272   1.000
    Zr37    Zr   0.87036   0.36811   0.95273   1.000
    Zr38    Zr   0.35632   0.47607   0.85495   1.000
    Zr39    Zr   0.85632   0.47606   0.85494   1.000
    Zr40    Zr   0.28714   0.21604   0.95794   1.000
    Zr41    Zr   0.78716   0.21606   0.95802   1.000
    Zr42    Zr   0.22371   0.17245   0.83840   1.000
    Zr43    Zr   0.72369   0.17253   0.83851   1.000
    Zr44    Zr   0.12038   0.13189   0.95264   1.000
    Zr45    Zr   0.62036   0.13190   0.95267   1.000
    Zr46    Zr   0.10628   0.00000   0.85493   1.000
    Zr47    Zr   0.60629   0.00000   0.85494   1.000
    Zr48    Zr   0.46274   0.71621   0.04137   1.000
    Zr49    Zr   0.96273   0.71622   0.04134   1.000
    Zr50    Zr   0.02621   0.67283   0.16092   1.000
    Zr51    Zr   0.52621   0.67280   0.16095   1.000
    Zr52    Zr   0.12961   0.63191   0.04721   1.000
    Zr53    Zr   0.62961   0.63191   0.04722   1.000
    Zr54    Zr   0.14365   0.52395   0.14500   1.000
    Zr55    Zr   0.64365   0.52394   0.14499   1.000
    O56     O    0.98037   0.68931   0.06230   1.000
    O57     O    0.95645   0.76618   0.07745   1.000
    O58     O    0.48038   0.68930   0.06233   1.000
    O59     O    0.45646   0.76618   0.07747   1.000
    O60     O    0.23044   0.81089   0.06284   1.000
    O61     O    0.20646   0.73391   0.07777   1.000
    O62     O    0.73045   0.81092   0.06293   1.000
    O63     O    0.70646   0.73392   0.07780   1.000
    O64     O    0.12135   0.59789   0.06571   1.000
    O65     O    0.16486   0.65788   0.08042   1.000
    O66     O    0.62135   0.59788   0.06572   1.000
    O67     O    0.66485   0.65788   0.08041   1.000
    O68     O    0.37137   0.90215   0.06576   1.000
    O69     O    0.41490   0.84213   0.08043   1.000
    O70     O    0.87135   0.90216   0.06579   1.000
    O71     O    0.91488   0.84213   0.08044   1.000
    O72     O    0.01212   0.66761   0.12209   1.000
    O73     O    0.51212   0.66759   0.12212   1.000
    O74     O    0.26217   0.83266   0.12259   1.000
    O75     O    0.76217   0.83272   0.12269   1.000
    O76     O    0.62837   0.54390   0.11460   1.000
    O77     O    0.12837   0.54390   0.11461   1.000
    O78     O    0.37840   0.95613   0.11462   1.000
    O79     O    0.87840   0.95614   0.11464   1.000
    O80     O    0.23781   0.16731   0.87724   1.000
    O81     O    0.73780   0.16737   0.87734   1.000
    O82     O    0.48786   0.33244   0.87780   1.000
    O83     O    0.98688   0.33241   0.87783   1.000
    O84     O    0.12157   0.03191   0.88526   1.000
    O85     O    0.87160   0.45611   0.88533   1.000
    O86     O    0.62158   0.03191   0.88531   1.000
    O87     O    0.37160   0.45611   0.88533   1.000
    O88     O    0.33513   0.34213   0.91951   1.000
    O89     O    0.29352   0.26610   0.92212   1.000
    O90     O    0.83512   0.34213   0.91952   1.000
    O91     O    0.79352   0.26611   0.92217   1.000
    O92     O    0.58508   0.15788   0.91952   1.000
    O93     O    0.54352   0.23383   0.92246   1.000
    O94     O    0.08509   0.15788   0.91950   1.000
    O95     O    0.04353   0.23383   0.92248   1.000
    O96     O    0.12862   0.09785   0.93412   1.000
    O97     O    0.62861   0.09786   0.93417   1.000
    O98     O    0.37863   0.40213   0.93422   1.000
    O99     O    0.87862   0.40213   0.93422   1.000
    O100    O    0.26953   0.18910   0.93701   1.000
    O101    O    0.76954   0.18913   0.93710   1.000
    O102    O    0.51959   0.31072   0.93759   1.000
    O103    O    0.01862   0.31071   0.93763   1.000
    N104    N    0.24998   0.50002   0.49995   1.000
    O105    O    0.15549   0.34674   0.65981   1.000
    O106    O    0.34448   0.65328   0.34010   1.000
    N107    N    0.49999   0.00001   0.49996   1.000
    O108    O    0.59442   0.84671   0.34012   1.000
    O109    O    0.40555   0.15331   0.65978   1.000
    N110    N    0.24999   1.00000   0.99988   1.000
    O111    O    0.29162   0.97607   0.03212   1.000
    O112    O    0.20836   0.02392   0.96759   1.000
    O113    O    0.24988   0.93928   0.02979   1.000
    O114    O    0.25010   0.06071   0.97002   1.000
    N115    N    0.75000   0.50002   0.49997   1.000
    O116    O    0.65550   0.34674   0.65982   1.000
    O117    O    0.84449   0.65328   0.34011   1.000
    N118    N    0.99997   0.00001   0.49996   1.000
    O119    O    0.90554   0.15330   0.65981   1.000
    O120    O    0.09442   0.84672   0.34012   1.000
    N121    N    0.24997   0.99928   0.49991   1.000
    O122    O    0.38068   0.07506   0.68930   1.000
    O123    O    0.11928   0.92423   0.31055   1.000
    N124    N    0.74999   0.00002   0.99987   1.000
    O125    O    0.70836   0.02394   0.96772   1.000
    O126    O    0.75010   0.06074   0.96998   1.000
    O127    O    0.74987   0.93931   0.02965   1.000
    O128    O    0.79161   0.97610   0.03214   1.000
    N129    N    0.99969   0.50002   0.49995   1.000
    O130    O    0.86911   0.57545   0.31062   1.000
    O131    O    0.13057   0.42458   0.68928   1.000
    N132    N    0.49999   0.50002   0.49987   1.000
    O133    O    0.36926   0.57545   0.31059   1.000
    O134    O    0.63071   0.42458   0.68926   1.000
    N135    N    0.75000   0.99922   0.50001   1.000
    O136    O    0.88069   0.07503   0.68936   1.000
    O137    O    0.61930   0.92420   0.31063   1.000
    N138    N    0.49999   0.50001   0.99997   1.000
    O139    O    0.45837   0.47607   0.96779   1.000
    O140    O    0.50011   0.43922   0.97028   1.000
    O141    O    0.49986   0.56080   0.02966   1.000
    O142    O    0.54161   0.52395   0.03215   1.000
    N143    N    0.99999   0.50001   0.99995   1.000
    O144    O    0.99963   0.43921   0.97028   1.000
    O145    O    0.95837   0.47606   0.96778   1.000
    O146    O    0.04161   0.52395   0.03214   1.000
    O147    O    0.99986   0.56080   0.02964   1.000
loop_
    _geom_bond_atom_site_label_1
    _geom_bond_atom_site_label_2
    _geom_bond_distance
    _geom_bond_site_symmetry_2
    _ccdc_geom_bond_type
    Zr49   O56       0.64880      .   S
    Zr20   O56       0.64880      .   S
    Zr49   O57       0.98595      .   S
    Zr7    O57       0.98595      .   S
    Zr48   O58       0.64877      .   S
    Zr21   O58       0.64877      .   S
    Zr48   O59       0.98595      .   S
    Zr6    O59       0.98595      .   S
    Zr24   O60       0.64876      .   S
    Zr8    O60       0.64876      .   S
    Zr24   O61       0.98533      .   S
    Zr0    O61       0.98533      .   S
    Zr25   O62       0.64875      .   S
    Zr9    O62       0.64875      .   S
    Zr25   O63       0.98506      .   S
    Zr1    O63       0.98506      .   S
    Zr52   O64       0.65091      .   S
    Zr22   O64       0.65091      .   S
    Zr52   O65       0.98621      .   S
    Zr0    O65       0.98621      .   S
    Zr53   O66       0.65090      .   S
    Zr23   O66       0.65090      .   S
    Zr53   O67       0.98605      .   S
    Zr1    O67       0.98605      .   S
    Zr28   O68       0.65089      .   S
    Zr10   O68       0.65089      .   S
    Zr28   O69       0.98614      .   S
    Zr6    O69       0.98614      .   S
    Zr29   O70       0.65089      .   S
    Zr11   O70       0.65089      .   S
    Zr29   O71       0.98619      .   S
    Zr7    O71       0.98619      .   S
    Zr20   O72       0.62698  1_655   S
    Zr50   O72       0.62698      .   S
    Zr21   O73       0.62695      .   S
    Zr51   O73       0.62695      .   S
    Zr8    O74       0.62693      .   S
    Zr26   O74       0.62693      .   S
    Zr9    O75       0.62688      .   S
    Zr27   O75       0.62688      .   S
    Zr23   O76       0.62540      .   S
    Zr55   O76       0.62540      .   S
    Zr22   O77       0.62541      .   S
    Zr54   O77       0.62541      .   S
    Zr10   O78       0.62540      .   S
    Zr30   O78       0.62540      .   S
    Zr11   O79       0.62537      .   S
    Zr31   O79       0.62537      .   S
    Zr42   O80       0.62698      .   S
    Zr16   O80       0.62698      .   S
    Zr43   O81       0.62696      .   S
    Zr17   O81       0.62696      .   S
    Zr34   O82       0.62698      .   S
    Zr12   O82       0.62698      .   S
    Zr35   O83       0.61799      .   S
    Zr13   O83       0.61799  1_455   S
    Zr46   O84       0.74553      .   S
    Zr18   O84       0.74553      .   S
    Zr39   O85       0.62541      .   S
    Zr15   O85       0.62541      .   S
    Zr47   O86       0.74581      .   S
    Zr19   O86       0.74581      .   S
    Zr38   O87       0.62538      .   S
    Zr14   O87       0.62538      .   S
    Zr4    O88       0.98616      .   S
    Zr36   O88       0.98616      .   S
    Zr4    O89       0.98522      .   S
    Zr40   O89       0.98522      .   S
    Zr5    O90       0.98618      .   S
    Zr37   O90       0.98618      .   S
    Zr5    O91       0.98527      .   S
    Zr41   O91       0.98527      .   S
    Zr3    O92       0.98612      .   S
    Zr45   O92       0.98612      .   S
    Zr3    O93       0.98591      .   S
    Zr33   O93       0.98591      .   S
    Zr2    O94       0.98619      .   S
    Zr44   O94       0.98619      .   S
    Zr2    O95       0.98599      .   S
    Zr32   O95       0.98599      .   S
    Zr18   O96       0.65109      .   S
    Zr44   O96       0.65109      .   S
    Zr19   O97       0.65093      .   S
    Zr45   O97       0.65093      .   S
    Zr14   O98       0.65090      .   S
    Zr36   O98       0.65090      .   S
    Zr15   O99       0.65090      .   S
    Zr37   O99       0.65090      .   S
    Zr16   O100      0.64875      .   S
    Zr40   O100      0.64875      .   S
    Zr17   O101      0.64874      .   S
    Zr41   O101      0.64874      .   S
    Zr12   O102      0.64875      .   S
    Zr33   O102      0.64875      .   S
    Zr13   O103      0.66159      .   S
    Zr32   O103      0.66159      .   S
    N104   O105      4.12991      .   S
    Zr2    O105      4.99509      .   S
    N104   O106      4.12973      .   S
    Zr6    O106      4.99480      .   S
    N107   O108      4.12878  1_545   S
    Zr1    O108      4.99414      .   S
    N107   O109      4.12861      .   S
    Zr4    O109      4.99405      .   S
    N110   O111      1.08168  1_556   S
    Zr10   O111      1.83465      .   S
    N110   O112      1.08197  1_565   S
    Zr18   O112      1.83409      .   S
    N110   O113      1.08116  1_556   S
    Zr8    O113      1.83251      .   S
    N110   O114      1.08087  1_565   S
    Zr16   O114      1.83219      .   S
    N115   O116      4.12994      .   S
    Zr3    O116      4.99517      .   S
    N115   O117      4.12971      .   S
    Zr7    O117      4.99479      .   S
    N118   O119      4.12871      .   S
    Zr5    O119      4.99394      .   S
    N118   O120      4.12891  1_645   S
    Zr0    O120      4.99406      .   S
    N121   O122      4.03493  1_565   S
    Zr3    O122      4.88515      .   S
    N121   O123      4.03089      .   S
    Zr7    O123      4.87995  1_655   S
    N124   O125      1.08122      .   S
    Zr19   O125      1.83423      .   S
    N124   O126      1.08108      .   S
    Zr17   O126      1.83149      .   S
    N124   O127      1.08034  1_546   S
    Zr9    O127      1.83379      .   S
    N124   O128      1.08185  1_546   S
    Zr11   O128      1.83481      .   S
    N129   O130      4.02983      .   S
    Zr1    O130      4.87927      .   S
    N129   O131      4.03437  1_655   S
    Zr4    O131      4.88413      .   S
    N132   O133      4.03158      .   S
    Zr0    O133      4.88115      .   S
    N132   O134      4.03251      .   S
    Zr5    O134      4.88202      .   S
    N135   O136      4.03458  1_565   S
    Zr2    O136      4.88476  1_455   S
    N135   O137      4.03101      .   S
    Zr6    O137      4.88046      .   S
    N138   O139      1.08170      .   S
    Zr14   O139      1.83476      .   S
    N138   O140      1.08110      .   S
    Zr12   O140      1.83247      .   S
    N138   O141      1.08112  1_556   S
    Zr21   O141      1.83248      .   S
    N138   O142      1.08171  1_556   S
    Zr23   O142      1.83477      .   S
    N143   O144      1.08071      .   S
    Zr13   O144      1.83073  1_455   S
    N143   O145      1.08169      .   S
    Zr15   O145      1.83475      .   S
    N143   O146      1.08177  1_656   S
    Zr22   O146      1.83483      .   S
    N143   O147      1.08116  1_556   S
    Zr20   O147      1.83255      .   S
