# CIF file generated by openbabel 2.4.90, see http://openbabel.sf.net
data_I
_chemical_name_common 'AgH5(C2N)2'
_cell_length_a 11.6274
_cell_length_b 11.638
_cell_length_c 11.6507
_cell_angle_alpha 95.2968
_cell_angle_beta 116.299
_cell_angle_gamma 95.1862
_space_group_name_H-M_alt 'P 1'
_space_group_name_Hall 'P 1'
loop_
    _symmetry_equiv_pos_as_xyz
    x,y,z
loop_
    _atom_site_label
    _atom_site_type_symbol
    _atom_site_fract_x
    _atom_site_fract_y
    _atom_site_fract_z
    _atom_site_occupancy
    Ag0     Ag   0.38156   0.35591   0.29337   1.000
    Ag1     Ag   0.93995   0.24799   0.56036   1.000
    Ag2     Ag   0.20607   0.14307   0.11892   1.000
    Ag3     Ag   0.00118   0.50186   0.50047   1.000
    Ag4     Ag   0.99948   0.99815   0.49879   1.000
    Ag5     Ag   0.61847   0.64409   0.70665   1.000
    Ag6     Ag   0.06008   0.75201   0.43966   1.000
    Ag7     Ag   0.79396   0.85693   0.88111   1.000
    H8      H    0.55232   0.33862   0.12734   1.000
    H9      H    0.80328   0.28620   0.24328   1.000
    H10     H    0.54370   0.26589   0.52400   1.000
    H11     H    0.68835   0.20105   0.58627   1.000
    H12     H    0.69674   0.35520   0.61486   1.000
    H13     H    0.25732   0.20859   0.69778   1.000
    H14     H    0.37269   0.15722   0.94869   1.000
    H15     H    0.91320   0.29679   0.81072   1.000
    H16     H    0.88445   0.14288   0.80390   1.000
    H17     H    0.97543   0.23338   0.95596   1.000
    H18     H    0.89819   0.55555   0.90108   1.000
    H19     H    0.07167   0.50043   0.80743   1.000
    H20     H    0.62446   0.56971   0.43823   1.000
    H21     H    0.75780   0.59314   0.40327   1.000
    H22     H    0.71816   0.71080   0.48207   1.000
    H23     H    0.10295   0.44540   0.09915   1.000
    H24     H    0.93055   0.50279   0.19337   1.000
    H25     H    0.24455   0.41053   0.59773   1.000
    H26     H    0.37749   0.43193   0.56187   1.000
    H27     H    0.28256   0.29154   0.51909   1.000
    H28     H    0.59891   0.94464   0.60262   1.000
    H29     H    0.69213   0.99955   0.42909   1.000
    H30     H    0.06315   0.93137   0.87508   1.000
    H31     H    0.09759   0.90699   0.74168   1.000
    H32     H    0.01912   0.78989   0.78216   1.000
    H33     H    0.40086   0.05445   0.39632   1.000
    H34     H    0.30697   0.99728   0.56870   1.000
    H35     H    0.90136   0.08937   0.25588   1.000
    H36     H    0.93673   0.06693   0.12289   1.000
    H37     H    0.97971   0.20776   0.21697   1.000
    H38     H    0.44770   0.66138   0.87268   1.000
    H39     H    0.19675   0.71380   0.75675   1.000
    H40     H    0.45632   0.73411   0.47603   1.000
    H41     H    0.31168   0.79895   0.41376   1.000
    H42     H    0.30329   0.64480   0.38517   1.000
    H43     H    0.74271   0.79141   0.30225   1.000
    H44     H    0.62733   0.84279   0.05134   1.000
    H45     H    0.08683   0.70321   0.18931   1.000
    H46     H    0.11558   0.85712   0.19613   1.000
    H47     H    0.02460   0.76662   0.04407   1.000
    C48     C    0.65543   0.28566   0.42099   1.000
    C49     C    0.60942   0.31818   0.22372   1.000
    C50     C    0.73366   0.29179   0.28107   1.000
    C51     C    0.64573   0.27643   0.54310   1.000
    C52     C    0.07874   0.21148   0.84476   1.000
    C53     C    0.21920   0.20374   0.76713   1.000
    C54     C    0.27631   0.17794   0.89136   1.000
    C55     C    0.95637   0.22171   0.85414   1.000
    C56     C    0.81151   0.58533   0.60249   1.000
    C57     C    0.89278   0.55811   0.80604   1.000
    C58     C    0.97907   0.53153   0.75998   1.000
    C59     C    0.72327   0.61658   0.47479   1.000
    C60     C    0.19018   0.41703   0.39817   1.000
    C61     C    0.10863   0.44347   0.19437   1.000
    C62     C    0.02288   0.47120   0.24073   1.000
    C63     C    0.27840   0.38592   0.52594   1.000
    C64     C    0.89810   0.91502   0.68862   1.000
    C65     C    0.69407   0.94210   0.60782   1.000
    C66     C    0.73992   0.96858   0.52151   1.000
    C67     C    0.02624   0.88399   0.77658   1.000
    C68     C    0.10120   0.08263   0.30965   1.000
    C69     C    0.30549   0.05634   0.39080   1.000
    C70     C    0.25931   0.02873   0.47654   1.000
    C71     C    0.97300   0.11349   0.22166   1.000
    C72     C    0.34460   0.71434   0.57904   1.000
    C73     C    0.39061   0.68182   0.77631   1.000
    C74     C    0.26637   0.70821   0.71896   1.000
    C75     C    0.35430   0.72357   0.45693   1.000
    C76     C    0.92129   0.78852   0.15527   1.000
    C77     C    0.78083   0.79626   0.23290   1.000
    C78     C    0.72372   0.82207   0.10867   1.000
    C79     C    0.04366   0.77830   0.14589   1.000
    N80     N    0.56015   0.31405   0.31228   1.000
    N81     N    0.76215   0.27063   0.40535   1.000
    N82     N    0.09474   0.22555   0.73826   1.000
    N83     N    0.18740   0.18308   0.94025   1.000
    N84     N    0.78697   0.59169   0.70621   1.000
    N85     N    0.92734   0.54890   0.63148   1.000
    N86     N    0.07479   0.45433   0.36939   1.000
    N87     N    0.21427   0.40966   0.29417   1.000
    N88     N    0.79433   0.90866   0.71332   1.000
    N89     N    0.86872   0.95129   0.57294   1.000
    N90     N    0.13034   0.04550   0.42489   1.000
    N91     N    0.20528   0.09000   0.28543   1.000
    N92     N    0.43988   0.68595   0.68775   1.000
    N93     N    0.23788   0.72937   0.59468   1.000
    N94     N    0.90528   0.77445   0.26176   1.000
    N95     N    0.81263   0.81693   0.05978   1.000
loop_
    _geom_bond_atom_site_label_1
    _geom_bond_atom_site_label_2
    _geom_bond_distance
    _geom_bond_site_symmetry_2
    _ccdc_geom_bond_type
    H47    C79       1.09845      .   S
    H44    C78       1.08421      .   S
    N95    C78       1.38682      .   S
    N95    C76       1.35688      .   S
    N95    Ag7       2.09616  1_554   S
    H23    C61       1.08425      .   S
    C78    C77       1.37506      .   S
    Ag2    N91       2.09309      .   S
    Ag2    Ag0       2.98528      .   S
    Ag2    N83       2.09618  1_554   S
    H36    C71       1.09968      .   S
    H8     C49       1.08417      .   S
    C79    C76       1.48884  1_455   S
    C79    H45       1.09879      .   S
    C79    H46       1.10088      .   S
    C76    N94       1.35550      .   S
    H24    C62       1.08439  1_655   S
    C61    C62       1.37596      .   S
    C61    N87       1.38632      .   S
    H37    C71       1.10096      .   S
    C71    H35       1.09739      .   S
    C71    C68       1.48754  1_655   S
    C49    C50       1.37494      .   S
    C49    N80       1.38681      .   S
    C77    N94       1.38657      .   S
    C77    H43       1.08337      .   S
    C62    N86       1.38700      .   S
    H9     C50       1.08321      .   S
    N94    Ag6       2.11729  1_655   S
    C50    N81       1.38651      .   S
    N91    C68       1.35640      .   S
    N91    C69       1.38630      .   S
    Ag0    N87       2.09994      .   S
    Ag0    N80       2.09642      .   S
    N87    C60       1.35642      .   S
    C68    N90       1.35441      .   S
    N80    C48       1.35677      .   S
    N86    C60       1.35441      .   S
    N86    Ag3       2.11156      .   S
    H42    C75       1.10090      .   S
    C69    H33       1.08423      .   S
    C69    C70       1.37590      .   S
    C60    C63       1.48758      .   S
    H21    C59       1.09739      .   S
    N81    C48       1.35556      .   S
    N81    Ag1       2.11727      .   S
    H41    C75       1.09883      .   S
    C48    C51       1.48875      .   S
    N90    C70       1.38700      .   S
    N90    Ag4       2.11110  1_445   S
    H29    C66       1.08437      .   S
    H20    C59       1.09964      .   S
    Ag6    Ag4       3.09957  1_455   S
    Ag6    Ag3       3.14593      .   S
    Ag6    N93       2.11726      .   S
    C75    H40       1.09840      .   S
    C75    C72       1.48874      .   S
    C59    H22       1.10100      .   S
    C59    C56       1.48762      .   S
    C70    H34       1.08440  1_545   S
    Ag4    Ag1       3.14111  1_565   S
    Ag4    N89       2.11110      .   S
    Ag3    Ag1       3.18810  1_455   S
    Ag3    N85       2.11156  1_455   S
    H27    C63       1.10097      .   S
    C66    N89       1.38707      .   S
    C66    C65       1.37583      .   S
    H10    C51       1.09841      .   S
    C63    H26       1.09966      .   S
    C63    H25       1.09743      .   S
    C51    H11       1.09882      .   S
    C51    H12       1.10090      .   S
    Ag1    N82       2.11728  1_655   S
    N89    C64       1.35440      .   S
    C72    N93       1.35557      .   S
    C72    N92       1.35675      .   S
    N93    C74       1.38651      .   S
    C56    N85       1.35438      .   S
    C56    N84       1.35643      .   S
    H28    C65       1.08421      .   S
    C65    N88       1.38635      .   S
    N85    C58       1.38704      .   S
    N92    Ag5       2.09643      .   S
    N92    C73       1.38681      .   S
    C64    N88       1.35641      .   S
    C64    C67       1.48756  1_655   S
    H13    C53       1.08337      .   S
    N84    Ag5       2.10591      .   S
    N84    C57       1.38638      .   S
    Ag5    Ag7       2.98530      .   S
    N88    Ag7       2.09955      .   S
    C74    H39       1.08321      .   S
    C74    C73       1.37495      .   S
    N82    C53       1.38658      .   S
    N82    C52       1.35550      .   S
    H31    C67       1.09736      .   S
    C58    C57       1.37590      .   S
    C58    H19       1.08438  1_655   S
    C53    C54       1.37506      .   S
    C73    H38       1.08417      .   S
    C67    H32       1.10095      .   S
    C67    H30       1.09964      .   S
    H16    C55       1.10089      .   S
    C57    H18       1.08422      .   S
    H15    C55       1.09877      .   S
    C52    C55       1.48884  1_455   S
    C52    N83       1.35689      .   S
    C55    H17       1.09846      .   S
    C54    N83       1.38680      .   S
    C54    H14       1.08421      .   S
