# CIF file generated by openbabel 2.4.90, see http://openbabel.sf.net
data_I
_chemical_name_common ''
_cell_length_a 15.133
_cell_length_b 17.678
_cell_length_c 17.678
_cell_angle_alpha 90
_cell_angle_beta 90
_cell_angle_gamma 90
_space_group_name_H-M_alt 'P 1'
_space_group_name_Hall 'P 1'
loop_
    _symmetry_equiv_pos_as_xyz
    x,y,z
loop_
    _atom_site_label
    _atom_site_type_symbol
    _atom_site_fract_x
    _atom_site_fract_y
    _atom_site_fract_z
    _atom_site_occupancy
    Zr0     Zr   0.98277   0.85845   0.90818   1.000
    Zr1     Zr   0.98426   0.15145   0.10127   1.000
    Zr2     Zr   0.02864   0.90919   0.15118   1.000
    Zr3     Zr   0.02904   0.10083   0.85828   1.000
    Zr4     Zr   0.47599   0.85887   0.10125   1.000
    Zr5     Zr   0.47635   0.15108   0.90820   1.000
    Zr6     Zr   0.53541   0.90880   0.85832   1.000
    Zr7     Zr   0.53693   0.10121   0.15119   1.000
    Zr8     Zr   0.75839   0.86154   0.86121   1.000
    Zr9     Zr   0.75991   0.14854   0.14817   1.000
    Zr10    Zr   0.25160   0.86192   0.14814   1.000
    Zr11    Zr   0.25198   0.14819   0.86123   1.000
    N12     N    0.55681   0.50565   0.11512   1.000
    O13     O    0.52151   0.65253   0.10752   1.000
    O14     O    0.64482   0.35294   0.13080   1.000
    O15     O    0.55259   0.33333   0.13325   1.000
    N16     N    0.67056   0.98133   0.17228   1.000
    O17     O    0.69173   0.04639   0.15876   1.000
    O18     O    0.63599   0.03456   0.15951   1.000
    O19     O    0.60078   0.01460   0.15628   1.000
    O20     O    0.60592   0.92793   0.14061   1.000
    N21     N    0.95698   0.89508   0.50420   1.000
    O22     O    0.98772   0.90279   0.35739   1.000
    O23     O    0.96414   0.87674   0.67635   1.000
    O24     O    0.87152   0.87927   0.65695   1.000
    N25     N    0.95793   0.11487   0.50526   1.000
    O26     O    0.98844   0.10717   0.65208   1.000
    O27     O    0.96534   0.13320   0.33310   1.000
    O28     O    0.87273   0.13077   0.35247   1.000
    N29     N    0.05408   0.50471   0.11504   1.000
    O30     O    0.02310   0.35780   0.10749   1.000
    O31     O    0.04709   0.67706   0.13320   1.000
    O32     O    0.13931   0.65748   0.13074   1.000
    N33     N    0.05378   0.50526   0.89428   1.000
    O34     O    0.02258   0.65213   0.90187   1.000
    O35     O    0.04712   0.33294   0.87618   1.000
    O36     O    0.13933   0.35256   0.87860   1.000
    N37     N    0.45513   0.89509   0.50529   1.000
    O38     O    0.49021   0.90262   0.65213   1.000
    O39     O    0.45983   0.87693   0.33311   1.000
    O40     O    0.36720   0.87945   0.35247   1.000
    N41     N    0.45600   0.11490   0.50395   1.000
    O42     O    0.49138   0.10738   0.35726   1.000
    O43     O    0.46043   0.13305   0.67624   1.000
    O44     O    0.36782   0.13062   0.65682   1.000
    N45     N    0.55603   0.50435   0.89440   1.000
    O46     O    0.52126   0.35743   0.90197   1.000
    O47     O    0.55145   0.67669   0.87625   1.000
    O48     O    0.64368   0.65711   0.87865   1.000
    N49     N    0.84893   0.83670   0.02832   1.000
    O50     O    0.82740   0.85006   0.96322   1.000
    O51     O    0.88349   0.84929   0.97497   1.000
    O52     O    0.91864   0.85319   0.99516   1.000
    O53     O    0.90978   0.86903   0.08200   1.000
    N54     N    0.67068   0.02789   0.83702   1.000
    O55     O    0.69103   0.96327   0.85060   1.000
    O56     O    0.63529   0.97509   0.84988   1.000
    O57     O    0.60062   0.99502   0.85311   1.000
    O58     O    0.60618   0.08169   0.86877   1.000
    N59     N    0.84933   0.17284   0.98033   1.000
    O60     O    0.82837   0.15957   0.04580   1.000
    O61     O    0.88446   0.16030   0.03407   1.000
    O62     O    0.91928   0.15654   0.01389   1.000
    O63     O    0.91017   0.14071   0.92704   1.000
    N64     N    0.34243   0.17343   0.02840   1.000
    O65     O    0.32094   0.15982   0.96327   1.000
    O66     O    0.37704   0.16055   0.97501   1.000
    O67     O    0.41219   0.15688   0.99520   1.000
    O68     O    0.40700   0.14123   0.08204   1.000
    N69     N    0.16270   0.98097   0.83723   1.000
    O70     O    0.18385   0.04602   0.85071   1.000
    O71     O    0.12812   0.03418   0.84998   1.000
    O72     O    0.09291   0.01422   0.85321   1.000
    O73     O    0.10171   0.92754   0.86888   1.000
    N74     N    0.16385   0.02824   0.17245   1.000
    O75     O    0.18423   0.96364   0.15884   1.000
    O76     O    0.12849   0.97546   0.15960   1.000
    O77     O    0.09383   0.99539   0.15637   1.000
    O78     O    0.10306   0.08206   0.14071   1.000
    N79     N    0.34120   0.83626   0.98023   1.000
    O80     O    0.32014   0.85005   0.04572   1.000
    O81     O    0.37624   0.84928   0.03400   1.000
    O82     O    0.41105   0.85294   0.01384   1.000
    O83     O    0.40561   0.86861   0.92701   1.000
loop_
    _geom_bond_atom_site_label_1
    _geom_bond_atom_site_label_2
    _geom_bond_distance
    _geom_bond_site_symmetry_2
    _ccdc_geom_bond_type
    N12    O13       2.65429      .   S
    Zr4    O13       3.71384      .   S
    N12    O14       3.02303      .   S
    Zr9    O14       4.02291      .   S
    N12    O15       3.06370      .   S
    Zr7    O15       4.12240      .   S
    N16    O17       1.21759  1_565   S
    Zr9    O17       2.08823      .   S
    N16    O18       1.10003  1_565   S
    Zr7    O18       1.91240      .   S
    N16    O19       1.24129  1_565   S
    Zr7    O19       1.81289      .   S
    N16    O20       1.47031      .   S
    Zr4    O20       2.41666      .   S
    N21    O22       2.64024      .   S
    Zr2    O22       3.69936  1_455   S
    N21    O23       3.06243      .   S
    Zr0    O23       4.12059      .   S
    N21    O24       3.00693      .   S
    Zr8    O24       4.00849      .   S
    N25    O26       2.63987      .   S
    Zr3    O26       3.69826  1_455   S
    N25    O27       3.06260      .   S
    Zr1    O27       4.12098      .   S
    N25    O28       3.00607      .   S
    Zr9    O28       4.00715      .   S
    N29    O30       2.64256      .   S
    Zr1    O30       3.69641  1_655   S
    N29    O31       3.06539      .   S
    Zr2    O31       4.12542      .   S
    N29    O32       3.00563      .   S
    Zr10   O32       4.00551      .   S
    N33    O34       2.64244      .   S
    Zr0    O34       3.69850  1_655   S
    N33    O35       3.06466      .   S
    Zr3    O35       4.12449      .   S
    N33    O36       3.00648      .   S
    Zr11   O36       4.00670      .   S
    N37    O38       2.65288      .   S
    Zr6    O38       3.71032      .   S
    N37    O39       3.06148      .   S
    Zr4    O39       4.11848      .   S
    N37    O40       3.02420      .   S
    Zr10   O40       4.02536      .   S
    N41    O42       2.65111      .   S
    Zr7    O42       3.70918      .   S
    N41    O43       3.06333      .   S
    Zr5    O43       4.12009      .   S
    N41    O44       3.02686      .   S
    Zr11   O44       4.02823      .   S
    N45    O46       2.65347      .   S
    Zr5    O46       3.71224      .   S
    N45    O47       3.06420      .   S
    Zr6    O47       4.12265      .   S
    N45    O48       3.02151      .   S
    Zr8    O48       4.02107      .   S
    N49    O50       1.21906  1_554   S
    Zr8    O50       2.09378      .   S
    N49    O51       1.10122  1_554   S
    Zr0    O51       1.91761      .   S
    N49    O52       1.24166  1_554   S
    Zr0    O52       1.82059      .   S
    N49    O53       1.44052      .   S
    Zr2    O53       2.28811  1_455   S
    N54    O55       1.20721  1_545   S
    Zr8    O55       2.07568      .   S
    N54    O56       1.09990  1_545   S
    Zr6    O56       1.91831      .   S
    N54    O57       1.24199  1_545   S
    Zr6    O57       1.81805      .   S
    N54    O58       1.47377      .   S
    Zr5    O58       2.41891      .   S
    N59    O60       1.22269  1_556   S
    Zr9    O60       2.09434      .   S
    N59    O61       1.11096  1_556   S
    Zr1    O61       1.92790      .   S
    N59    O62       1.24719  1_556   S
    Zr1    O62       1.83334      .   S
    N59    O63       1.43442      .   S
    Zr3    O63       2.28276  1_455   S
    N64    O65       1.22026  1_554   S
    Zr11   O65       2.09414      .   S
    N64    O66       1.10304  1_554   S
    Zr5    O66       1.91877      .   S
    N64    O67       1.24274  1_554   S
    Zr5    O67       1.82173      .   S
    N64    O68       1.47583      .   S
    Zr7    O68       2.42089      .   S
    N69    O70       1.21734  1_565   S
    Zr11   O70       2.08798      .   S
    N69    O71       1.09984  1_565   S
    Zr3    O71       1.91248      .   S
    N69    O72       1.24126  1_565   S
    Zr3    O72       1.81284      .   S
    N69    O73       1.43420      .   S
    Zr0    O73       2.28342  1_655   S
    N74    O75       1.20702  1_545   S
    Zr10   O75       2.07576      .   S
    N74    O76       1.09930  1_545   S
    Zr2    O76       1.91769      .   S
    N74    O77       1.24135  1_545   S
    Zr2    O77       1.81751      .   S
    N74    O78       1.43749      .   S
    Zr1    O78       2.28537  1_655   S
    N79    O80       1.22534  1_556   S
    Zr10   O80       2.09721      .   S
    N79    O81       1.11254  1_556   S
    Zr4    O81       1.92892      .   S
    N79    O82       1.24797  1_556   S
    Zr4    O82       1.83425      .   S
    N79    O83       1.47043      .   S
    Zr6    O83       2.41608      .   S
