# CIF file generated by openbabel 2.4.90, see http://openbabel.sf.net
data_I
_chemical_name_common ''
_cell_length_a 15.133
_cell_length_b 17.678
_cell_length_c 17.678
_cell_angle_alpha 90
_cell_angle_beta 90
_cell_angle_gamma 90
_space_group_name_H-M_alt 'P 1'
_space_group_name_Hall 'P 1'
loop_
    _symmetry_equiv_pos_as_xyz
    x,y,z
loop_
    _atom_site_label
    _atom_site_type_symbol
    _atom_site_fract_x
    _atom_site_fract_y
    _atom_site_fract_z
    _atom_site_occupancy
    N0      N    0.55681   0.50565   0.11512   1.000
    N1      N    0.67056   0.98133   0.17228   1.000
    N2      N    0.95698   0.89508   0.50420   1.000
    N3      N    0.95793   0.11487   0.50526   1.000
    N4      N    0.05408   0.50471   0.11504   1.000
    N5      N    0.05378   0.50526   0.89428   1.000
    N6      N    0.45513   0.89509   0.50529   1.000
    N7      N    0.45600   0.11490   0.50395   1.000
    N8      N    0.55603   0.50435   0.89440   1.000
    N9      N    0.84893   0.83670   0.02832   1.000
    N10     N    0.67068   0.02789   0.83702   1.000
    N11     N    0.84933   0.17284   0.98033   1.000
    N12     N    0.34243   0.17343   0.02840   1.000
    N13     N    0.16270   0.98097   0.83723   1.000
    N14     N    0.16385   0.02824   0.17245   1.000
    N15     N    0.34120   0.83626   0.98023   1.000
    Zr16    Zr   0.75839   0.86154   0.86121   1.000
    O17     O    0.79290   0.85580   0.91222   1.000
    O18     O    0.72471   0.91241   0.85591   1.000
    O19     O    0.70104   0.75933   0.86993   1.000
    O20     O    0.81496   0.87041   0.75908   1.000
    Zr21    Zr   0.25198   0.14819   0.86123   1.000
    O22     O    0.21792   0.09711   0.85597   1.000
    O23     O    0.30990   0.13940   0.75903   1.000
    O24     O    0.19566   0.25038   0.86991   1.000
    O25     O    0.28646   0.15401   0.91225   1.000
    Zr26    Zr   0.75991   0.14854   0.14817   1.000
    O27     O    0.70236   0.25074   0.13949   1.000
    O28     O    0.72582   0.09747   0.15346   1.000
    O29     O    0.79414   0.15406   0.09698   1.000
    O30     O    0.81632   0.13965   0.25032   1.000
    Zr31    Zr   0.53541   0.90880   0.85832   1.000
    O32     O    0.47051   0.88871   0.89266   1.000
    O33     O    0.58535   0.94195   0.85410   1.000
    O34     O    0.56801   0.95191   0.85572   1.000
    O35     O    0.54343   0.79275   0.86729   1.000
    O36     O    0.51281   0.90571   0.75522   1.000
    Zr37    Zr   0.53693   0.10121   0.15119   1.000
    O38     O    0.54476   0.21727   0.14222   1.000
    O39     O    0.58646   0.06789   0.15535   1.000
    O40     O    0.56886   0.05791   0.15373   1.000
    O41     O    0.51416   0.10430   0.25423   1.000
    O42     O    0.47197   0.12122   0.11661   1.000
    Zr43    Zr   0.98277   0.85845   0.90818   1.000
    O44     O    0.04224   0.89300   0.88853   1.000
    O45     O    0.00268   0.75529   0.90503   1.000
    O46     O    0.95071   0.85582   0.95167   1.000
    O47     O    0.97345   0.86760   0.79227   1.000
    O48     O    0.93313   0.85387   0.94157   1.000
    Zr49    Zr   0.25160   0.86192   0.14814   1.000
    O50     O    0.21791   0.91278   0.15349   1.000
    O51     O    0.19545   0.75970   0.13944   1.000
    O52     O    0.28587   0.85598   0.09693   1.000
    O53     O    0.30940   0.87069   0.25030   1.000
    Zr54    Zr   0.47635   0.15108   0.90820   1.000
    O55     O    0.42669   0.15581   0.94161   1.000
    O56     O    0.46839   0.14207   0.79222   1.000
    O57     O    0.49880   0.25425   0.90508   1.000
    O58     O    0.44427   0.15398   0.95170   1.000
    O59     O    0.54126   0.11638   0.88848   1.000
    Zr60    Zr   0.47599   0.85887   0.10125   1.000
    O61     O    0.44352   0.85591   0.05754   1.000
    O62     O    0.42612   0.85408   0.06762   1.000
    O63     O    0.49875   0.75570   0.10439   1.000
    O64     O    0.54095   0.89340   0.12093   1.000
    O65     O    0.46791   0.86790   0.21718   1.000
    Zr66    Zr   0.98426   0.15145   0.10127   1.000
    O67     O    0.04366   0.11676   0.12099   1.000
    O68     O    0.00368   0.25462   0.10438   1.000
    O69     O    0.95177   0.15400   0.05758   1.000
    O70     O    0.93436   0.15588   0.06767   1.000
    O71     O    0.97480   0.14233   0.21719   1.000
    Zr72    Zr   0.02864   0.90919   0.15118   1.000
    O73     O    0.06123   0.95229   0.15377   1.000
    O74     O    0.07856   0.94233   0.15539   1.000
    O75     O    0.03787   0.79313   0.14219   1.000
    O76     O    0.00818   0.90599   0.25429   1.000
    O77     O    0.96921   0.88911   0.11659   1.000
    Zr78    Zr   0.02904   0.10083   0.85828   1.000
    O79     O    0.06098   0.05752   0.85574   1.000
    O80     O    0.07858   0.06750   0.85413   1.000
    O81     O    0.03808   0.21688   0.86723   1.000
    O82     O    0.96961   0.12077   0.89266   1.000
    O83     O    0.00874   0.10400   0.75518   1.000
loop_
    _geom_bond_atom_site_label_1
    _geom_bond_atom_site_label_2
    _geom_bond_distance
    _geom_bond_site_symmetry_2
    _ccdc_geom_bond_type
    Zr16   O17       1.04689      .   S
    N9     O17       2.24621  1_554   S
    Zr16   O18       1.03784      .   S
    N10    O18       2.22437  1_545   S
    Zr16   O19       2.01054      .   S
    N8     O19       5.03186      .   S
    Zr16   O20       2.00424      .   S
    N2     O20       5.01103      .   S
    Zr21   O22       1.04399      .   S
    N13    O22       2.24128  1_565   S
    Zr21   O23       2.01412      .   S
    N7     O23       5.04082      .   S
    Zr21   O24       2.00335      .   S
    N5     O24       5.00966      .   S
    Zr21   O25       1.04707      .   S
    N12    O25       2.24743  1_554   S
    Zr26   O27       2.01145      .   S
    N0     O27       5.03429      .   S
    Zr26   O28       1.04412      .   S
    N1     O28       2.24164  1_565   S
    Zr26   O29       1.04717      .   S
    N11    O29       2.24950  1_556   S
    Zr26   O30       2.00357      .   S
    N3     O30       5.00950      .   S
    Zr31   O32       1.20804      .   S
    N15    O32       2.66170      .   S
    Zr31   O33       0.95915      .   S
    N10    O33       2.01667  1_545   S
    Zr31   O34       0.90902      .   S
    N10    O34       2.08014  1_545   S
    Zr31   O35       2.06133      .   S
    N8     O35       5.12424      .   S
    Zr31   O36       1.85516      .   S
    N6     O36       4.50767      .   S
    Zr37   O38       2.06120      .   S
    N0     O38       5.12359      .   S
    Zr37   O39       0.95620      .   S
    N1     O39       2.01263  1_565   S
    Zr37   O40       0.90644      .   S
    N1     O40       2.07575  1_565   S
    Zr37   O41       1.85459      .   S
    N7     O41       4.50531      .   S
    Zr37   O42       1.21045      .   S
    N12    O42       2.66954      .   S
    Zr43   O44       1.14171  1_655   S
    N13    O44       2.56202      .   S
    Zr43   O45       1.84925  1_655   S
    N5     O45       4.49131      .   S
    Zr43   O46       0.91030      .   S
    N9     O46       2.07908  1_554   S
    Zr43   O47       2.06030      .   S
    N2     O47       5.12159      .   S
    Zr43   O48       0.95880      .   S
    N9     O48       2.01678  1_554   S
    Zr49   O50       1.03788      .   S
    N14    O50       2.22426  1_545   S
    Zr49   O51       2.00275      .   S
    N4     O51       5.00821      .   S
    Zr49   O52       1.04861      .   S
    N15    O52       2.25368  1_556   S
    Zr49   O53       2.01268      .   S
    N6     O53       5.03672      .   S
    Zr54   O55       0.95938      .   S
    N12    O55       2.01914  1_554   S
    Zr54   O56       2.06004      .   S
    N7     O56       5.12208      .   S
    Zr54   O57       1.85612      .   S
    N8     O57       4.50922      .   S
    Zr54   O58       0.91086      .   S
    N12    O58       2.08123  1_554   S
    Zr54   O59       1.20946      .   S
    N10    O59       2.66651      .   S
    Zr60   O61       0.91712      .   S
    N15    O61       2.09437  1_556   S
    Zr60   O62       0.96446      .   S
    N15    O62       2.03408  1_556   S
    Zr60   O63       1.85692      .   S
    N0     O63       4.51083      .   S
    Zr60   O64       1.20833      .   S
    N1     O64       2.66222      .   S
    Zr60   O65       2.05924      .   S
    N6     O65       5.11945      .   S
    Zr66   O67       1.14269  1_655   S
    N14    O67       2.56600      .   S
    Zr66   O68       1.84821  1_655   S
    N4     O68       4.49034      .   S
    Zr66   O69       0.91667      .   S
    N11    O69       2.09261  1_556   S
    Zr66   O70       0.96395      .   S
    N11    O70       2.03211  1_556   S
    Zr66   O71       2.06049      .   S
    N3     O71       5.12196      .   S
    Zr72   O73       0.90876      .   S
    N14    O73       2.07919  1_545   S
    Zr72   O74       0.95885      .   S
    N14    O74       2.01575  1_545   S
    Zr72   O75       2.06271      .   S
    N4     O75       5.12695      .   S
    Zr72   O76       1.84968      .   S
    N2     O76       4.48964  1_655   S
    Zr72   O77       1.14406  1_455   S
    N9     O77       2.57036      .   S
    Zr78   O79       0.90642      .   S
    N13    O79       2.07569  1_565   S
    Zr78   O80       0.95624      .   S
    N13    O80       2.01250  1_565   S
    Zr78   O81       2.06225      .   S
    N5     O81       5.12575      .   S
    Zr78   O82       1.14138  1_455   S
    N11    O82       2.56166      .   S
    Zr78   O83       1.84913      .   S
    N3     O83       4.48871  1_655   S
